10909430
  -OEChem-03252401492D

203206  0     1  0  0  0  0  0999 V2000
   22.5478    3.4060    0.0000 S   0  0  0  0  0  0  0  0  0  0  0  0
   14.2188   -0.1049    0.0000 O   0  0  0  0  0  0  0  0  0  0  0  0
   13.1511   -2.8838    0.0000 O   0  0  0  0  0  0  0  0  0  0  0  0
   10.1792   -5.0430    0.0000 O   0  0  0  0  0  0  0  0  0  0  0  0
   17.2799   -2.0101    0.0000 O   0  0  0  0  0  0  0  0  0  0  0  0
    6.5348   -4.5826    0.0000 O   0  0  0  0  0  0  0  0  0  0  0  0
   19.3014    0.9755    0.0000 O   0  0  0  0  0  0  0  0  0  0  0  0
   20.0446    1.6446    0.0000 O   0  0  0  0  0  0  0  0  0  0  0  0
    4.1932   -1.7522    0.0000 O   0  0  0  0  0  0  0  0  0  0  0  0
   18.8856    2.9318    0.0000 O   0  0  0  0  0  0  0  0  0  0  0  0
   10.7751    4.4286    0.0000 O   0  0  0  0  0  0  0  0  0  0  0  0
   17.1914    2.5716    0.0000 O   0  0  0  0  0  0  0  0  0  0  0  0
    4.4239    1.9140    0.0000 O   0  0  0  0  0  0  0  0  0  0  0  0
    7.1017    4.4286    0.0000 O   0  0  0  0  0  0  0  0  0  0  0  0
    7.8454    4.9567    0.0000 O   0  0  0  0  0  0  0  0  0  0  0  0
    4.4234    4.5306    0.0000 O   0  0  0  0  0  0  0  0  0  0  0  0
    4.6045    2.8080    0.0000 O   0  0  0  0  0  0  0  0  0  0  0  0
   13.6836   -1.7522    0.0000 N   0  0  0  0  0  0  0  0  0  0  0  0
   16.1209   -0.7229    0.0000 N   0  0  0  0  0  0  0  0  0  0  0  0
    8.9384   -4.1997    0.0000 N   0  0  0  0  0  0  0  0  0  0  0  0
   11.6693   -3.1185    0.0000 N   0  0  0  0  0  0  0  0  0  0  0  0
   18.7662   -0.6718    0.0000 N   0  0  0  0  0  0  0  0  0  0  0  0
   21.2035    0.3574    0.0000 N   0  0  0  0  0  0  0  0  0  0  0  0
    6.2075   -3.1185    0.0000 N   0  0  0  0  0  0  0  0  0  0  0  0
   22.7169    1.7968    0.0000 N   0  0  0  0  0  0  0  0  0  0  0  0
   11.2833    3.0171    0.0000 N   0  0  0  0  0  0  0  0  0  0  0  0
   24.7992    1.9583    0.0000 N   0  0  0  0  0  0  0  0  0  0  0  0
    4.9569   -0.4609    0.0000 N   0  0  0  0  0  0  0  0  0  0  0  0
   13.8234   -5.5008    0.0000 N   0  0  0  0  0  0  0  0  0  0  0  0
    8.4384    3.7475    0.0000 N   0  0  0  0  0  0  0  0  0  0  0  0
    5.8646    2.3326    0.0000 N   0  0  0  0  0  0  0  0  0  0  0  0
    2.3875    0.0512    0.0000 N   0  0  0  0  0  0  0  0  0  0  0  0
    2.7570   -1.5240    0.0000 N   0  0  0  0  0  0  0  0  0  0  0  0
    8.8926    6.3364    0.0000 N   0  0  0  0  0  0  0  0  0  0  0  0
   15.3778   -1.3920    0.0000 C   0  0  1  0  0  0  0  0  0  0  0  0
   15.5857   -2.3702    0.0000 C   0  0  2  0  0  0  0  0  0  0  0  0
   12.7325   -1.4431    0.0000 C   0  0  1  0  0  0  0  0  0  0  0  0
    7.9463   -4.0744    0.0000 C   0  0  1  0  0  0  0  0  0  0  0  0
    7.6976   -5.0430    0.0000 C   0  0  2  0  0  0  0  0  0  0  0  0
   12.9199   -0.4609    0.0000 C   0  0  0  0  0  0  0  0  0  0  0  0
   10.8603   -3.7063    0.0000 C   0  0  2  0  0  0  0  0  0  0  0  0
   16.5368   -2.6792    0.0000 C   0  0  0  0  0  0  0  0  0  0  0  0
   14.4267   -1.0830    0.0000 C   0  0  0  0  0  0  0  0  0  0  0  0
   17.8151   -0.3628    0.0000 C   0  0  1  0  0  0  0  0  0  0  0  0
   12.8571    0.5372    0.0000 C   0  0  0  0  0  0  0  0  0  0  0  0
   14.8426   -3.0393    0.0000 C   0  0  0  0  0  0  0  0  0  0  0  0
   12.3068   -2.3480    0.0000 C   0  0  0  0  0  0  0  0  0  0  0  0
   11.3421   -4.5826    0.0000 C   0  0  0  0  0  0  0  0  0  0  0  0
   20.4604   -0.3117    0.0000 C   0  0  1  0  0  0  0  0  0  0  0  0
    8.4121   -5.7426    0.0000 C   0  0  0  0  0  0  0  0  0  0  0  0
    9.9305   -4.0744    0.0000 C   0  0  0  0  0  0  0  0  0  0  0  0
   17.0720   -1.0319    0.0000 C   0  0  0  0  0  0  0  0  0  0  0  0
   20.6683   -1.2898    0.0000 C   0  0  0  0  0  0  0  0  0  0  0  0
   12.5481    1.4882    0.0000 C   0  0  0  0  0  0  0  0  0  0  0  0
    7.0165   -3.7063    0.0000 C   0  0  0  0  0  0  0  0  0  0  0  0
    6.7344   -5.3119    0.0000 C   0  0  0  0  0  0  0  0  0  0  0  0
   21.6194   -1.5989    0.0000 C   0  0  0  0  0  0  0  0  0  0  0  0
   17.6072    0.6153    0.0000 C   0  0  0  0  0  0  0  0  0  0  0  0
   12.3418   -4.6035    0.0000 C   0  0  0  0  0  0  0  0  0  0  0  0
   19.5093   -0.0027    0.0000 C   0  0  0  0  0  0  0  0  0  0  0  0
   16.7447   -3.6574    0.0000 C   0  0  0  0  0  0  0  0  0  0  0  0
   24.6182    3.6809    0.0000 C   0  0  2  0  0  0  0  0  0  0  0  0
   24.2114    2.7673    0.0000 C   0  0  1  0  0  0  0  0  0  0  0  0
   21.7388    2.0047    0.0000 C   0  0  2  0  0  0  0  0  0  0  0  0
    5.5701   -2.3480    0.0000 C   0  0  2  0  0  0  0  0  0  0  0  0
   12.0123    2.3326    0.0000 C   0  0  0  0  0  0  0  0  0  0  0  0
    8.1634   -6.7112    0.0000 C   0  0  0  0  0  0  0  0  0  0  0  0
   23.2169    2.6628    0.0000 C   0  0  0  0  0  0  0  0  0  0  0  0
   20.9956    1.3356    0.0000 C   0  0  0  0  0  0  0  0  0  0  0  0
   21.6342    2.9992    0.0000 C   0  0  0  0  0  0  0  0  0  0  0  0
   18.3504    1.2845    0.0000 C   0  0  0  0  0  0  0  0  0  0  0  0
   25.6127    3.7854    0.0000 C   0  0  0  0  0  0  0  0  0  0  0  0
   12.8236   -5.4798    0.0000 C   0  0  0  0  0  0  0  0  0  0  0  0
    4.7258   -2.8838    0.0000 C   0  0  0  0  0  0  0  0  0  0  0  0
   21.8273   -2.5770    0.0000 C   0  0  0  0  0  0  0  0  0  0  0  0
   22.3625   -0.9297    0.0000 C   0  0  0  0  0  0  0  0  0  0  0  0
   24.0304    4.4899    0.0000 C   0  0  0  0  0  0  0  0  0  0  0  0
    5.1443   -1.4431    0.0000 C   0  0  0  0  0  0  0  0  0  0  0  0
    5.0197    0.5372    0.0000 C   0  0  1  0  0  0  0  0  0  0  0  0
   26.0194    4.6990    0.0000 C   0  0  0  0  0  0  0  0  0  0  0  0
    4.7676   -3.8829    0.0000 C   0  0  0  0  0  0  0  0  0  0  0  0
    9.4384    3.7475    0.0000 C   0  0  2  0  0  0  0  0  0  0  0  0
   10.4070    3.4988    0.0000 C   0  0  0  0  0  0  0  0  0  0  0  0
   18.1425    2.2626    0.0000 C   0  0  0  0  0  0  0  0  0  0  0  0
    4.0374    0.7246    0.0000 C   0  0  0  0  0  0  0  0  0  0  0  0
    5.3287    1.4882    0.0000 C   0  0  0  0  0  0  0  0  0  0  0  0
    6.5935    3.0171    0.0000 C   0  0  1  0  0  0  0  0  0  0  0  0
    9.5638    4.7397    0.0000 C   0  0  0  0  0  0  0  0  0  0  0  0
    5.6538   -4.3462    0.0000 C   0  0  0  0  0  0  0  0  0  0  0  0
    3.9233   -4.4188    0.0000 C   0  0  0  0  0  0  0  0  0  0  0  0
    7.4698    3.4988    0.0000 C   0  0  0  0  0  0  0  0  0  0  0  0
    3.3840   -0.0324    0.0000 C   0  0  0  0  0  0  0  0  0  0  0  0
    6.0057    3.8261    0.0000 C   0  0  0  0  0  0  0  0  0  0  0  0
    5.6957   -5.3453    0.0000 C   0  0  0  0  0  0  0  0  0  0  0  0
    3.9652   -5.4179    0.0000 C   0  0  0  0  0  0  0  0  0  0  0  0
    8.7672    5.3443    0.0000 C   0  0  0  0  0  0  0  0  0  0  0  0
    4.8514   -5.8812    0.0000 C   0  0  0  0  0  0  0  0  0  0  0  0
    3.6124   -1.0060    0.0000 C   0  0  0  0  0  0  0  0  0  0  0  0
    5.0112    3.7216    0.0000 C   0  0  0  0  0  0  0  0  0  0  0  0
    2.0000   -0.8706    0.0000 C   0  0  0  0  0  0  0  0  0  0  0  0
   15.2489   -0.7856    0.0000 H   0  0  0  0  0  0  0  0  0  0  0  0
   15.7146   -2.9766    0.0000 H   0  0  0  0  0  0  0  0  0  0  0  0
   12.9788   -2.0122    0.0000 H   0  0  0  0  0  0  0  0  0  0  0  0
    8.4241   -4.7774    0.0000 H   0  0  0  0  0  0  0  0  0  0  0  0
    7.2546   -4.6092    0.0000 H   0  0  0  0  0  0  0  0  0  0  0  0
   13.4215   -0.8253    0.0000 H   0  0  0  0  0  0  0  0  0  0  0  0
   12.3011   -0.4219    0.0000 H   0  0  0  0  0  0  0  0  0  0  0  0
   11.4654   -3.8415    0.0000 H   0  0  0  0  0  0  0  0  0  0  0  0
   17.1564   -2.6576    0.0000 H   0  0  0  0  0  0  0  0  0  0  0  0
   16.6230   -2.0652    0.0000 H   0  0  0  0  0  0  0  0  0  0  0  0
   13.8125   -2.3586    0.0000 H   0  0  0  0  0  0  0  0  0  0  0  0
   15.9920   -0.1165    0.0000 H   0  0  0  0  0  0  0  0  0  0  0  0
   18.2759    0.0521    0.0000 H   0  0  0  0  0  0  0  0  0  0  0  0
   13.4336    0.3089    0.0000 H   0  0  0  0  0  0  0  0  0  0  0  0
   12.2481    0.4210    0.0000 H   0  0  0  0  0  0  0  0  0  0  0  0
   14.4277   -2.5786    0.0000 H   0  0  0  0  0  0  0  0  0  0  0  0
   14.3818   -3.4542    0.0000 H   0  0  0  0  0  0  0  0  0  0  0  0
   15.2574   -3.5001    0.0000 H   0  0  0  0  0  0  0  0  0  0  0  0
   10.7551   -4.7824    0.0000 H   0  0  0  0  0  0  0  0  0  0  0  0
   11.4369   -5.1953    0.0000 H   0  0  0  0  0  0  0  0  0  0  0  0
   20.3315    0.2947    0.0000 H   0  0  0  0  0  0  0  0  0  0  0  0
    8.9767   -5.9988    0.0000 H   0  0  0  0  0  0  0  0  0  0  0  0
    8.7624   -5.2311    0.0000 H   0  0  0  0  0  0  0  0  0  0  0  0
    8.9384   -4.8197    0.0000 H   0  0  0  0  0  0  0  0  0  0  0  0
   12.0937   -3.5704    0.0000 H   0  0  0  0  0  0  0  0  0  0  0  0
   20.0487   -1.3115    0.0000 H   0  0  0  0  0  0  0  0  0  0  0  0
   20.5820   -1.9038    0.0000 H   0  0  0  0  0  0  0  0  0  0  0  0
   13.1632    1.4105    0.0000 H   0  0  0  0  0  0  0  0  0  0  0  0
   11.9871    1.2242    0.0000 H   0  0  0  0  0  0  0  0  0  0  0  0
    6.5677   -4.7147    0.0000 H   0  0  0  0  0  0  0  0  0  0  0  0
    6.1373   -5.4786    0.0000 H   0  0  0  0  0  0  0  0  0  0  0  0
    6.9012   -5.9091    0.0000 H   0  0  0  0  0  0  0  0  0  0  0  0
   21.1586   -2.0137    0.0000 H   0  0  0  0  0  0  0  0  0  0  0  0
   17.2787    1.1411    0.0000 H   0  0  0  0  0  0  0  0  0  0  0  0
   17.0324    0.3831    0.0000 H   0  0  0  0  0  0  0  0  0  0  0  0
   18.8951   -1.2783    0.0000 H   0  0  0  0  0  0  0  0  0  0  0  0
   12.9288   -4.4037    0.0000 H   0  0  0  0  0  0  0  0  0  0  0  0
   12.2470   -3.9908    0.0000 H   0  0  0  0  0  0  0  0  0  0  0  0
   16.1382   -3.7863    0.0000 H   0  0  0  0  0  0  0  0  0  0  0  0
   16.8736   -4.2638    0.0000 H   0  0  0  0  0  0  0  0  0  0  0  0
   17.3511   -3.5285    0.0000 H   0  0  0  0  0  0  0  0  0  0  0  0
   24.0016    3.6161    0.0000 H   0  0  0  0  0  0  0  0  0  0  0  0
   23.9593    2.2010    0.0000 H   0  0  0  0  0  0  0  0  0  0  0  0
   21.8992    1.4058    0.0000 H   0  0  0  0  0  0  0  0  0  0  0  0
    5.4731   -2.9603    0.0000 H   0  0  0  0  0  0  0  0  0  0  0  0
   21.7932    0.1658    0.0000 H   0  0  0  0  0  0  0  0  0  0  0  0
    5.7831   -3.5704    0.0000 H   0  0  0  0  0  0  0  0  0  0  0  0
   12.6274    2.4103    0.0000 H   0  0  0  0  0  0  0  0  0  0  0  0
   11.5346    1.9374    0.0000 H   0  0  0  0  0  0  0  0  0  0  0  0
    7.5629   -6.5570    0.0000 H   0  0  0  0  0  0  0  0  0  0  0  0
    8.0092   -7.3118    0.0000 H   0  0  0  0  0  0  0  0  0  0  0  0
    8.7639   -6.8654    0.0000 H   0  0  0  0  0  0  0  0  0  0  0  0
   21.4426    3.5889    0.0000 H   0  0  0  0  0  0  0  0  0  0  0  0
   21.0278    2.8703    0.0000 H   0  0  0  0  0  0  0  0  0  0  0  0
   18.6789    0.7587    0.0000 H   0  0  0  0  0  0  0  0  0  0  0  0
   18.9252    1.5167    0.0000 H   0  0  0  0  0  0  0  0  0  0  0  0
   25.5694    3.1669    0.0000 H   0  0  0  0  0  0  0  0  0  0  0  0
   26.2143    3.6354    0.0000 H   0  0  0  0  0  0  0  0  0  0  0  0
   12.2367   -5.6796    0.0000 H   0  0  0  0  0  0  0  0  0  0  0  0
   12.9184   -6.0925    0.0000 H   0  0  0  0  0  0  0  0  0  0  0  0
    4.4895   -2.3106    0.0000 H   0  0  0  0  0  0  0  0  0  0  0  0
    4.1202   -3.0169    0.0000 H   0  0  0  0  0  0  0  0  0  0  0  0
   21.2208   -2.7059    0.0000 H   0  0  0  0  0  0  0  0  0  0  0  0
   21.9562   -3.1835    0.0000 H   0  0  0  0  0  0  0  0  0  0  0  0
   22.4337   -2.4481    0.0000 H   0  0  0  0  0  0  0  0  0  0  0  0
   22.7774   -1.3905    0.0000 H   0  0  0  0  0  0  0  0  0  0  0  0
   22.8233   -0.5149    0.0000 H   0  0  0  0  0  0  0  0  0  0  0  0
   21.9476   -0.4690    0.0000 H   0  0  0  0  0  0  0  0  0  0  0  0
   24.5320    4.8543    0.0000 H   0  0  0  0  0  0  0  0  0  0  0  0
   23.6660    4.9915    0.0000 H   0  0  0  0  0  0  0  0  0  0  0  0
   23.5288    4.1255    0.0000 H   0  0  0  0  0  0  0  0  0  0  0  0
   11.6477    3.5187    0.0000 H   0  0  0  0  0  0  0  0  0  0  0  0
    4.5298    0.1572    0.0000 H   0  0  0  0  0  0  0  0  0  0  0  0
   25.4158    2.0231    0.0000 H   0  0  0  0  0  0  0  0  0  0  0  0
   24.5470    1.3919    0.0000 H   0  0  0  0  0  0  0  0  0  0  0  0
    4.3382   -0.4998    0.0000 H   0  0  0  0  0  0  0  0  0  0  0  0
   26.5858    4.4468    0.0000 H   0  0  0  0  0  0  0  0  0  0  0  0
   26.2716    5.2654    0.0000 H   0  0  0  0  0  0  0  0  0  0  0  0
   25.4530    4.9511    0.0000 H   0  0  0  0  0  0  0  0  0  0  0  0
    9.0284    4.2126    0.0000 H   0  0  0  0  0  0  0  0  0  0  0  0
    4.2576    1.3041    0.0000 H   0  0  0  0  0  0  0  0  0  0  0  0
    3.5049    1.0420    0.0000 H   0  0  0  0  0  0  0  0  0  0  0  0
   14.1221   -6.0441    0.0000 H   0  0  0  0  0  0  0  0  0  0  0  0
   14.1446   -4.9704    0.0000 H   0  0  0  0  0  0  0  0  0  0  0  0
    5.9763    3.0754    0.0000 H   0  0  0  0  0  0  0  0  0  0  0  0
    8.3607    4.3627    0.0000 H   0  0  0  0  0  0  0  0  0  0  0  0
   10.1560    4.5563    0.0000 H   0  0  0  0  0  0  0  0  0  0  0  0
    9.8471    5.2911    0.0000 H   0  0  0  0  0  0  0  0  0  0  0  0
    5.3868    2.7278    0.0000 H   0  0  0  0  0  0  0  0  0  0  0  0
    6.1773   -4.0140    0.0000 H   0  0  0  0  0  0  0  0  0  0  0  0
    3.3739   -4.1315    0.0000 H   0  0  0  0  0  0  0  0  0  0  0  0
    6.5630    4.0979    0.0000 H   0  0  0  0  0  0  0  0  0  0  0  0
    5.8348    4.4221    0.0000 H   0  0  0  0  0  0  0  0  0  0  0  0
    6.2452   -5.6326    0.0000 H   0  0  0  0  0  0  0  0  0  0  0  0
    3.4417   -5.7501    0.0000 H   0  0  0  0  0  0  0  0  0  0  0  0
   18.7567    3.5382    0.0000 H   0  0  0  0  0  0  0  0  0  0  0  0
    4.8774   -6.5006    0.0000 H   0  0  0  0  0  0  0  0  0  0  0  0
    2.0663    0.5816    0.0000 H   0  0  0  0  0  0  0  0  0  0  0  0
    4.1839   -1.2463    0.0000 H   0  0  0  0  0  0  0  0  0  0  0  0
    1.3964   -1.0122    0.0000 H   0  0  0  0  0  0  0  0  0  0  0  0
    8.3987    6.7112    0.0000 H   0  0  0  0  0  0  0  0  0  0  0  0
    9.4641    6.5766    0.0000 H   0  0  0  0  0  0  0  0  0  0  0  0
    3.8068    4.4658    0.0000 H   0  0  0  0  0  0  0  0  0  0  0  0
  1 68  1  0  0  0  0
  1 70  1  0  0  0  0
  2 43  2  0  0  0  0
  3 47  2  0  0  0  0
  4 51  2  0  0  0  0
  5 52  2  0  0  0  0
  6 55  2  0  0  0  0
  7 60  2  0  0  0  0
  8 69  2  0  0  0  0
  9 78  2  0  0  0  0
 10 84  1  0  0  0  0
 10196  1  0  0  0  0
 11 83  2  0  0  0  0
 12 84  2  0  0  0  0
 13 86  2  0  0  0  0
 14 91  2  0  0  0  0
 15 96  2  0  0  0  0
 16 99  1  0  0  0  0
 16203  1  0  0  0  0
 17 99  2  0  0  0  0
 37 18  1  6  0  0  0
 18 43  1  0  0  0  0
 18111  1  0  0  0  0
 35 19  1  1  0  0  0
 19 52  1  0  0  0  0
 19112  1  0  0  0  0
 20 38  1  0  0  0  0
 20 51  1  0  0  0  0
 20124  1  0  0  0  0
 21 41  1  0  0  0  0
 21 47  1  0  0  0  0
 21125  1  0  0  0  0
 44 22  1  1  0  0  0
 22 60  1  0  0  0  0
 22136  1  0  0  0  0
 49 23  1  1  0  0  0
 23 69  1  0  0  0  0
 23146  1  0  0  0  0
 24 55  1  0  0  0  0
 24 65  1  0  0  0  0
 24147  1  0  0  0  0
 25 64  1  0  0  0  0
 25 68  2  0  0  0  0
 26 66  1  0  0  0  0
 26 83  1  0  0  0  0
 26172  1  0  0  0  0
 63 27  1  6  0  0  0
 27174  1  0  0  0  0
 27175  1  0  0  0  0
 28 78  1  0  0  0  0
 28 79  1  0  0  0  0
 28176  1  0  0  0  0
 29 73  1  0  0  0  0
 29183  1  0  0  0  0
 29184  1  0  0  0  0
 30 82  1  0  0  0  0
 30 91  1  0  0  0  0
 30186  1  0  0  0  0
 31 86  1  0  0  0  0
 31 87  1  0  0  0  0
 31189  1  0  0  0  0
 32 92  1  0  0  0  0
 32100  1  0  0  0  0
 32198  1  0  0  0  0
 33 98  1  0  0  0  0
 33100  2  0  0  0  0
 34 96  1  0  0  0  0
 34201  1  0  0  0  0
 34202  1  0  0  0  0
 35 36  1  0  0  0  0
 35 43  1  0  0  0  0
 35101  1  0  0  0  0
 36 42  1  0  0  0  0
 36 46  1  6  0  0  0
 36102  1  0  0  0  0
 37 40  1  0  0  0  0
 37 47  1  0  0  0  0
 37103  1  0  0  0  0
 38 39  1  0  0  0  0
 38 55  1  0  0  0  0
 38104  1  6  0  0  0
 39 50  1  0  0  0  0
 39 56  1  6  0  0  0
 39105  1  0  0  0  0
 40 45  1  0  0  0  0
 40106  1  0  0  0  0
 40107  1  0  0  0  0
 41 48  1  6  0  0  0
 41 51  1  0  0  0  0
 41108  1  0  0  0  0
 42 61  1  0  0  0  0
 42109  1  0  0  0  0
 42110  1  0  0  0  0
 44 52  1  0  0  0  0
 44 58  1  0  0  0  0
 44113  1  0  0  0  0
 45 54  1  0  0  0  0
 45114  1  0  0  0  0
 45115  1  0  0  0  0
 46116  1  0  0  0  0
 46117  1  0  0  0  0
 46118  1  0  0  0  0
 48 59  1  0  0  0  0
 48119  1  0  0  0  0
 48120  1  0  0  0  0
 49 53  1  0  0  0  0
 49 60  1  0  0  0  0
 49121  1  0  0  0  0
 50 67  1  0  0  0  0
 50122  1  0  0  0  0
 50123  1  0  0  0  0
 53 57  1  0  0  0  0
 53126  1  0  0  0  0
 53127  1  0  0  0  0
 54 66  1  0  0  0  0
 54128  1  0  0  0  0
 54129  1  0  0  0  0
 56130  1  0  0  0  0
 56131  1  0  0  0  0
 56132  1  0  0  0  0
 57 75  1  0  0  0  0
 57 76  1  0  0  0  0
 57133  1  0  0  0  0
 58 71  1  0  0  0  0
 58134  1  0  0  0  0
 58135  1  0  0  0  0
 59 73  1  0  0  0  0
 59137  1  0  0  0  0
 59138  1  0  0  0  0
 61139  1  0  0  0  0
 61140  1  0  0  0  0
 61141  1  0  0  0  0
 62 63  1  0  0  0  0
 62 72  1  0  0  0  0
 62 77  1  1  0  0  0
 62142  1  0  0  0  0
 63 68  1  0  0  0  0
 63143  1  0  0  0  0
 64 69  1  6  0  0  0
 64 70  1  0  0  0  0
 64144  1  0  0  0  0
 65 74  1  6  0  0  0
 65 78  1  0  0  0  0
 65145  1  0  0  0  0
 66148  1  0  0  0  0
 66149  1  0  0  0  0
 67150  1  0  0  0  0
 67151  1  0  0  0  0
 67152  1  0  0  0  0
 70153  1  0  0  0  0
 70154  1  0  0  0  0
 71 84  1  0  0  0  0
 71155  1  0  0  0  0
 71156  1  0  0  0  0
 72 80  1  0  0  0  0
 72157  1  0  0  0  0
 72158  1  0  0  0  0
 73159  1  0  0  0  0
 73160  1  0  0  0  0
 74 81  1  0  0  0  0
 74161  1  0  0  0  0
 74162  1  0  0  0  0
 75163  1  0  0  0  0
 75164  1  0  0  0  0
 75165  1  0  0  0  0
 76166  1  0  0  0  0
 76167  1  0  0  0  0
 76168  1  0  0  0  0
 77169  1  0  0  0  0
 77170  1  0  0  0  0
 77171  1  0  0  0  0
 79 85  1  1  0  0  0
 79 86  1  0  0  0  0
 79173  1  0  0  0  0
 80177  1  0  0  0  0
 80178  1  0  0  0  0
 80179  1  0  0  0  0
 81 89  2  0  0  0  0
 81 90  1  0  0  0  0
 82 83  1  0  0  0  0
 82 88  1  1  0  0  0
 82180  1  0  0  0  0
 85 92  1  0  0  0  0
 85181  1  0  0  0  0
 85182  1  0  0  0  0
 87 91  1  0  0  0  0
 87 93  1  6  0  0  0
 87185  1  0  0  0  0
 88 96  1  0  0  0  0
 88187  1  0  0  0  0
 88188  1  0  0  0  0
 89 94  1  0  0  0  0
 89190  1  0  0  0  0
 90 95  2  0  0  0  0
 90191  1  0  0  0  0
 92 98  2  0  0  0  0
 93 99  1  0  0  0  0
 93192  1  0  0  0  0
 93193  1  0  0  0  0
 94 97  2  0  0  0  0
 94194  1  0  0  0  0
 95 97  1  0  0  0  0
 95195  1  0  0  0  0
 97197  1  0  0  0  0
 98199  1  0  0  0  0
100200  1  0  0  0  0
M  END
> <PUBCHEM_COMPOUND_CID>
10909430

> <PUBCHEM_COMPOUND_CANONICALIZED>
1

> <PUBCHEM_CACTVS_COMPLEXITY>
2850

> <PUBCHEM_CACTVS_HBOND_ACCEPTOR>
21

> <PUBCHEM_CACTVS_HBOND_DONOR>
17

> <PUBCHEM_CACTVS_ROTATABLE_BOND>
31

> <PUBCHEM_CACTVS_SUBSKEYS>
AAADcfB//gBAAAAAAAAAAAAAAAAAAWIAAAAwAAAAAAAAAAABwAAAHgQQCAAADSjF3gS/mJbJkgioAzX3fAACkC2xErAJ2YG4cIiIaDrg2TGUYAAulgLoyCe/n4KOAAAAAAAAAAAAAAAAAAAAAAAAAAAAAA==

> <PUBCHEM_IUPAC_OPENEYE_NAME>
(4R)-4-[[(2S)-2-[[(4R)-2-[(1S,2S)-1-amino-2-methyl-butyl]-4,5-dihydrothiazole-4-carbonyl]amino]-4-methyl-pentanoyl]amino]-5-[[(1S,2S)-1-[[(3S,6R,9S,12R,15S,18R,21S)-3-(2-amino-2-oxo-ethyl)-18-(3-aminopropyl)-12-benzyl-6-(carboxymethyl)-9-(1H-imidazol-5-ylmethyl)-15-[(1S)-1-methylpropyl]-2,5,8,11,14,17,20-heptaoxo-1,4,7,10,13,16,19-heptazacyclopentacos-21-yl]carbamoyl]-2-methyl-butyl]amino]-5-oxo-pentanoic acid

> <PUBCHEM_IUPAC_CAS_NAME>
(4R)-4-[[(2S)-2-[[[(4R)-2-[(1S,2S)-1-amino-2-methylbutyl]-4,5-dihydrothiazol-4-yl]-oxomethyl]amino]-4-methyl-1-oxopentyl]amino]-5-[[(2S,3S)-1-[[(3S,6R,9S,12R,15S,18R,21S)-3-(2-amino-2-oxoethyl)-18-(3-aminopropyl)-15-[(2S)-butan-2-yl]-6-(carboxymethyl)-9-(1H-imidazol-5-ylmethyl)-2,5,8,11,14,17,20-heptaoxo-12-(phenylmethyl)-1,4,7,10,13,16,19-heptazacyclopentacos-21-yl]amino]-3-methyl-1-oxopentan-2-yl]amino]-5-oxopentanoic acid

> <PUBCHEM_IUPAC_NAME_MARKUP>
(4<I>R</I>)-4-[[(2<I>S</I>)-2-[[(4<I>R</I>)-2-[(1<I>S</I>,2<I>S</I>)-1-amino-2-methylbutyl]-4,5-dihydro-1,3-thiazole-4-carbonyl]amino]-4-methylpentanoyl]amino]-5-[[(2<I>S</I>,3<I>S</I>)-1-[[(3<I>S</I>,6<I>R</I>,9<I>S</I>,12<I>R</I>,15<I>S</I>,18<I>R</I>,21<I>S</I>)-3-(2-amino-2-oxoethyl)-18-(3-aminopropyl)-12-benzyl-15-[(2<I>S</I>)-butan-2-yl]-6-(carboxymethyl)-9-(1<I>H</I>-imidazol-5-ylmethyl)-2,5,8,11,14,17,20-heptaoxo-1,4,7,10,13,16,19-heptazacyclopentacos-21-yl]amino]-3-methyl-1-oxopentan-2-yl]amino]-5-oxopentanoic acid

> <PUBCHEM_IUPAC_NAME>
(4R)-4-[[(2S)-2-[[(4R)-2-[(1S,2S)-1-amino-2-methylbutyl]-4,5-dihydro-1,3-thiazole-4-carbonyl]amino]-4-methylpentanoyl]amino]-5-[[(2S,3S)-1-[[(3S,6R,9S,12R,15S,18R,21S)-3-(2-amino-2-oxoethyl)-18-(3-aminopropyl)-12-benzyl-15-[(2S)-butan-2-yl]-6-(carboxymethyl)-9-(1H-imidazol-5-ylmethyl)-2,5,8,11,14,17,20-heptaoxo-1,4,7,10,13,16,19-heptazacyclopentacos-21-yl]amino]-3-methyl-1-oxopentan-2-yl]amino]-5-oxopentanoic acid

> <PUBCHEM_IUPAC_SYSTEMATIC_NAME>
(4R)-4-[[(2S)-2-[[(4R)-2-[(1S,2S)-1-azanyl-2-methyl-butyl]-4,5-dihydro-1,3-thiazol-4-yl]carbonylamino]-4-methyl-pentanoyl]amino]-5-[[(2S,3S)-1-[[(3S,6R,9S,12R,15S,18R,21S)-3-(2-azanyl-2-oxidanylidene-ethyl)-18-(3-azanylpropyl)-15-[(2S)-butan-2-yl]-6-(2-hydroxy-2-oxoethyl)-9-(1H-imidazol-5-ylmethyl)-2,5,8,11,14,17,20-heptakis(oxidanylidene)-12-(phenylmethyl)-1,4,7,10,13,16,19-heptazacyclopentacos-21-yl]amino]-3-methyl-1-oxidanylidene-pentan-2-yl]amino]-5-oxidanylidene-pentanoic acid

> <PUBCHEM_IUPAC_TRADITIONAL_NAME>
(4R)-5-[[(1S,2S)-1-[[(3S,6R,9S,12R,15S,18R,21S)-3-(2-amino-2-keto-ethyl)-18-(3-aminopropyl)-12-benzyl-6-(carboxymethyl)-9-(1H-imidazol-5-ylmethyl)-2,5,8,11,14,17,20-heptaketo-15-[(1S)-1-methylpropyl]-1,4,7,10,13,16,19-heptazacyclopentacos-21-yl]carbamoyl]-2-methyl-butyl]amino]-4-[[(2S)-2-[[(4R)-2-[(1S,2S)-1-amino-2-methyl-butyl]-2-thiazoline-4-carbonyl]amino]-4-methyl-pentanoyl]amino]-5-keto-valeric acid

> <PUBCHEM_IUPAC_INCHI>
InChI=1S/C66H103N17O16S/c1-9-35(6)52(69)66-81-48(32-100-66)63(97)76-43(26-34(4)5)59(93)74-42(22-23-50(85)86)58(92)83-53(36(7)10-2)64(98)75-40-20-15-16-25-71-55(89)46(29-49(68)84)78-62(96)47(30-51(87)88)79-61(95)45(28-39-31-70-33-72-39)77-60(94)44(27-38-18-13-12-14-19-38)80-65(99)54(37(8)11-3)82-57(91)41(21-17-24-67)73-56(40)90/h12-14,18-19,31,33-37,40-48,52-54H,9-11,15-17,20-30,32,67,69H2,1-8H3,(H2,68,84)(H,70,72)(H,71,89)(H,73,90)(H,74,93)(H,75,98)(H,76,97)(H,77,94)(H,78,96)(H,79,95)(H,80,99)(H,82,91)(H,83,92)(H,85,86)(H,87,88)/t35-,36-,37-,40-,41+,42+,43-,44+,45-,46-,47+,48-,52-,53-,54-/m0/s1

> <PUBCHEM_IUPAC_INCHIKEY>
CLKOFPXJLQSYAH-ABRJDSQDSA-N

> <PUBCHEM_XLOGP3_AA>
-4.1

> <PUBCHEM_EXACT_MASS>
1421.74894144

> <PUBCHEM_MOLECULAR_FORMULA>
C66H103N17O16S

> <PUBCHEM_MOLECULAR_WEIGHT>
1422.7

> <PUBCHEM_OPENEYE_CAN_SMILES>
CCC(C)C1C(=O)NC(C(=O)NC(C(=O)NC(C(=O)NC(C(=O)NCCCCC(C(=O)NC(C(=O)N1)CCCN)NC(=O)C(C(C)CC)NC(=O)C(CCC(=O)O)NC(=O)C(CC(C)C)NC(=O)C2CSC(=N2)C(C(C)CC)N)CC(=O)N)CC(=O)O)CC3=CN=CN3)CC4=CC=CC=C4

> <PUBCHEM_OPENEYE_ISO_SMILES>
CC[C@H](C)[C@H]1C(=O)N[C@@H](C(=O)N[C@H](C(=O)N[C@@H](C(=O)N[C@H](C(=O)NCCCC[C@@H](C(=O)N[C@@H](C(=O)N1)CCCN)NC(=O)[C@H]([C@@H](C)CC)NC(=O)[C@@H](CCC(=O)O)NC(=O)[C@H](CC(C)C)NC(=O)[C@@H]2CSC(=N2)[C@H]([C@@H](C)CC)N)CC(=O)N)CC(=O)O)CC3=CN=CN3)CC4=CC=CC=C4

> <PUBCHEM_CACTVS_TPSA>
556

> <PUBCHEM_MONOISOTOPIC_WEIGHT>
1421.74894144

> <PUBCHEM_TOTAL_CHARGE>
0

> <PUBCHEM_HEAVY_ATOM_COUNT>
100

> <PUBCHEM_ATOM_DEF_STEREO_COUNT>
15

> <PUBCHEM_ATOM_UDEF_STEREO_COUNT>
0

> <PUBCHEM_BOND_DEF_STEREO_COUNT>
0

> <PUBCHEM_BOND_UDEF_STEREO_COUNT>
0

> <PUBCHEM_ISOTOPIC_ATOM_COUNT>
0

> <PUBCHEM_COMPONENT_COUNT>
1

> <PUBCHEM_CACTVS_TAUTO_COUNT>
-1

> <PUBCHEM_COORDINATE_TYPE>
1
5
255

> <PUBCHEM_BONDANNOTATIONS>
37  18  6
35  19  5
44  22  5
49  23  5
63  27  6
32  100  8
32  92  8
33  100  8
33  98  8
36  46  6
38  104  6
39  56  6
41  48  6
62  77  5
64  69  6
65  74  6
79  85  5
81  89  8
81  90  8
82  88  5
87  93  6
89  94  8
90  95  8
92  98  8
94  97  8
95  97  8

$$$$
