1201549
  -OEChem-03252401442D

 48 51  0     1  0  0  0  0  0999 V2000
    6.6780   -0.1039    0.0000 O   0  0  0  0  0  0  0  0  0  0  0  0
    4.1661    2.4931    0.0000 N   0  0  0  0  0  0  0  0  0  0  0  0
    3.6883    0.5446    0.0000 C   0  0  1  0  0  0  0  0  0  0  0  0
    3.4295    1.5105    0.0000 C   0  0  2  0  0  0  0  0  0  0  0  0
    2.2893    0.0357    0.0000 C   0  0  0  0  0  0  0  0  0  0  0  0
    2.0305    1.0017    0.0000 C   0  0  0  0  0  0  0  0  0  0  0  0
    4.9093   -0.3211    0.0000 C   0  0  0  0  0  0  0  0  0  0  0  0
    5.4627    1.1994    0.0000 C   0  0  0  0  0  0  0  0  0  0  0  0
    5.7383    0.2381    0.0000 C   0  0  0  0  0  0  0  0  0  0  0  0
    4.6661    3.3591    0.0000 C   0  0  0  0  0  0  0  0  0  0  0  0
    6.8517   -1.0887    0.0000 C   0  0  0  0  0  0  0  0  0  0  0  0
    7.7914   -1.4308    0.0000 C   0  0  0  0  0  0  0  0  0  0  0  0
    6.0856   -1.7315    0.0000 C   0  0  0  0  0  0  0  0  0  0  0  0
    7.9650   -2.4156    0.0000 C   0  0  0  0  0  0  0  0  0  0  0  0
    5.1459   -1.3895    0.0000 C   0  0  0  0  0  0  0  0  0  0  0  0
    8.5574   -0.7880    0.0000 C   0  0  0  0  0  0  0  0  0  0  0  0
    6.2593   -2.7163    0.0000 C   0  0  0  0  0  0  0  0  0  0  0  0
    8.9047   -2.7576    0.0000 C   0  0  0  0  0  0  0  0  0  0  0  0
    4.3799   -2.0323    0.0000 C   0  0  0  0  0  0  0  0  0  0  0  0
    9.4971   -1.1300    0.0000 C   0  0  0  0  0  0  0  0  0  0  0  0
    5.4932   -3.3591    0.0000 C   0  0  0  0  0  0  0  0  0  0  0  0
    9.6708   -2.1148    0.0000 C   0  0  0  0  0  0  0  0  0  0  0  0
    4.5535   -3.0171    0.0000 C   0  0  0  0  0  0  0  0  0  0  0  0
    3.9083   -0.2765    0.0000 H   0  0  0  0  0  0  0  0  0  0  0  0
    3.2095    2.3315    0.0000 H   0  0  0  0  0  0  0  0  0  0  0  0
    2.4843   -0.5528    0.0000 H   0  0  0  0  0  0  0  0  0  0  0  0
    1.6954   -0.1420    0.0000 H   0  0  0  0  0  0  0  0  0  0  0  0
    1.4366    0.8239    0.0000 H   0  0  0  0  0  0  0  0  0  0  0  0
    1.8356    1.5902    0.0000 H   0  0  0  0  0  0  0  0  0  0  0  0
    5.3151   -0.7898    0.0000 H   0  0  0  0  0  0  0  0  0  0  0  0
    4.4926   -0.7802    0.0000 H   0  0  0  0  0  0  0  0  0  0  0  0
    5.4678    1.8193    0.0000 H   0  0  0  0  0  0  0  0  0  0  0  0
    6.0770    1.2831    0.0000 H   0  0  0  0  0  0  0  0  0  0  0  0
    5.8139   -0.3773    0.0000 H   0  0  0  0  0  0  0  0  0  0  0  0
    4.1291    3.6691    0.0000 H   0  0  0  0  0  0  0  0  0  0  0  0
    4.9761    3.8961    0.0000 H   0  0  0  0  0  0  0  0  0  0  0  0
    5.2030    3.0491    0.0000 H   0  0  0  0  0  0  0  0  0  0  0  0
    6.2691   -0.8767    0.0000 H   0  0  0  0  0  0  0  0  0  0  0  0
    7.4901   -2.8141    0.0000 H   0  0  0  0  0  0  0  0  0  0  0  0
    5.0383   -0.7789    0.0000 H   0  0  0  0  0  0  0  0  0  0  0  0
    8.4498   -0.1774    0.0000 H   0  0  0  0  0  0  0  0  0  0  0  0
    6.8419   -2.9284    0.0000 H   0  0  0  0  0  0  0  0  0  0  0  0
    9.0124   -3.3682    0.0000 H   0  0  0  0  0  0  0  0  0  0  0  0
    3.7973   -1.8202    0.0000 H   0  0  0  0  0  0  0  0  0  0  0  0
    9.9721   -0.7315    0.0000 H   0  0  0  0  0  0  0  0  0  0  0  0
    5.6009   -3.9697    0.0000 H   0  0  0  0  0  0  0  0  0  0  0  0
   10.2534   -2.3268    0.0000 H   0  0  0  0  0  0  0  0  0  0  0  0
    4.0786   -3.4156    0.0000 H   0  0  0  0  0  0  0  0  0  0  0  0
  1  9  1  0  0  0  0
  1 11  1  0  0  0  0
  2  3  1  0  0  0  0
  2  4  1  0  0  0  0
  2 10  1  0  0  0  0
  3  5  1  0  0  0  0
  3  7  1  0  0  0  0
  3 24  1  1  0  0  0
  4  6  1  0  0  0  0
  4  8  1  0  0  0  0
  4 25  1  6  0  0  0
  5  6  1  0  0  0  0
  5 26  1  0  0  0  0
  5 27  1  0  0  0  0
  6 28  1  0  0  0  0
  6 29  1  0  0  0  0
  7  9  1  0  0  0  0
  7 30  1  0  0  0  0
  7 31  1  0  0  0  0
  8  9  1  0  0  0  0
  8 32  1  0  0  0  0
  8 33  1  0  0  0  0
  9 34  1  0  0  0  0
 10 35  1  0  0  0  0
 10 36  1  0  0  0  0
 10 37  1  0  0  0  0
 11 12  1  0  0  0  0
 11 13  1  0  0  0  0
 11 38  1  0  0  0  0
 12 14  2  0  0  0  0
 12 16  1  0  0  0  0
 13 15  2  0  0  0  0
 13 17  1  0  0  0  0
 14 18  1  0  0  0  0
 14 39  1  0  0  0  0
 15 19  1  0  0  0  0
 15 40  1  0  0  0  0
 16 20  2  0  0  0  0
 16 41  1  0  0  0  0
 17 21  2  0  0  0  0
 17 42  1  0  0  0  0
 18 22  2  0  0  0  0
 18 43  1  0  0  0  0
 19 23  2  0  0  0  0
 19 44  1  0  0  0  0
 20 22  1  0  0  0  0
 20 45  1  0  0  0  0
 21 23  1  0  0  0  0
 21 46  1  0  0  0  0
 22 47  1  0  0  0  0
 23 48  1  0  0  0  0
M  END
> <PUBCHEM_COMPOUND_CID>
1201549

> <PUBCHEM_COMPOUND_CANONICALIZED>
1

> <PUBCHEM_CACTVS_COMPLEXITY>
340

> <PUBCHEM_CACTVS_HBOND_ACCEPTOR>
2

> <PUBCHEM_CACTVS_HBOND_DONOR>
0

> <PUBCHEM_CACTVS_ROTATABLE_BOND>
4

> <PUBCHEM_CACTVS_SUBSKEYS>
AAADceB6IAAAAAAAAAAAAAAAAAAAAWAAAAA8YIAABgAAAAABQAAAHgAAAAAADDzhmAYyAIMABACAAiBCAAACAAAgAAAIiAAICIgIJiKAsRiGMAAmwAGIqAeQwOAOAAAAAAAAAAAAAAAAAAAAAAAAAAAAAA==

> <PUBCHEM_IUPAC_OPENEYE_NAME>
(1S,5R)-3-benzhydryloxy-8-methyl-8-azabicyclo[3.2.1]octane

> <PUBCHEM_IUPAC_CAS_NAME>
(1S,5R)-3-(diphenylmethyl)oxy-8-methyl-8-azabicyclo[3.2.1]octane

> <PUBCHEM_IUPAC_NAME_MARKUP>
(1<I>S</I>,5<I>R</I>)-3-benzhydryloxy-8-methyl-8-azabicyclo[3.2.1]octane

> <PUBCHEM_IUPAC_NAME>
(1S,5R)-3-benzhydryloxy-8-methyl-8-azabicyclo[3.2.1]octane

> <PUBCHEM_IUPAC_SYSTEMATIC_NAME>
(1S,5R)-3-(diphenylmethyl)oxy-8-methyl-8-azabicyclo[3.2.1]octane

> <PUBCHEM_IUPAC_TRADITIONAL_NAME>
(1S,5R)-3-benzhydryloxy-8-methyl-8-azabicyclo[3.2.1]octane

> <PUBCHEM_IUPAC_INCHI>
InChI=1S/C21H25NO/c1-22-18-12-13-19(22)15-20(14-18)23-21(16-8-4-2-5-9-16)17-10-6-3-7-11-17/h2-11,18-21H,12-15H2,1H3/t18-,19+,20?

> <PUBCHEM_IUPAC_INCHIKEY>
GIJXKZJWITVLHI-YOFSQIOKSA-N

> <PUBCHEM_XLOGP3_AA>
4.5

> <PUBCHEM_EXACT_MASS>
307.193614421

> <PUBCHEM_MOLECULAR_FORMULA>
C21H25NO

> <PUBCHEM_MOLECULAR_WEIGHT>
307.4

> <PUBCHEM_OPENEYE_CAN_SMILES>
CN1C2CCC1CC(C2)OC(C3=CC=CC=C3)C4=CC=CC=C4

> <PUBCHEM_OPENEYE_ISO_SMILES>
CN1[C@@H]2CC[C@H]1CC(C2)OC(C3=CC=CC=C3)C4=CC=CC=C4

> <PUBCHEM_CACTVS_TPSA>
12.5

> <PUBCHEM_MONOISOTOPIC_WEIGHT>
307.193614421

> <PUBCHEM_TOTAL_CHARGE>
0

> <PUBCHEM_HEAVY_ATOM_COUNT>
23

> <PUBCHEM_ATOM_DEF_STEREO_COUNT>
2

> <PUBCHEM_ATOM_UDEF_STEREO_COUNT>
0

> <PUBCHEM_BOND_DEF_STEREO_COUNT>
0

> <PUBCHEM_BOND_UDEF_STEREO_COUNT>
0

> <PUBCHEM_ISOTOPIC_ATOM_COUNT>
0

> <PUBCHEM_COMPONENT_COUNT>
1

> <PUBCHEM_CACTVS_TAUTO_COUNT>
-1

> <PUBCHEM_COORDINATE_TYPE>
1
5
255

> <PUBCHEM_BONDANNOTATIONS>
12  14  8
12  16  8
13  15  8
13  17  8
14  18  8
15  19  8
16  20  8
17  21  8
18  22  8
19  23  8
20  22  8
21  23  8
3  24  5
4  25  6

$$$$
