46936176
  -OEChem-03252401512D

269281  0     1  0  0  0  0  0999 V2000
   13.1794    3.8151    0.0000 O   0  0  0  0  0  0  0  0  0  0  0  0
   12.3861    4.4239    0.0000 O   0  0  0  0  0  0  0  0  0  0  0  0
    6.6560   16.9779    0.0000 O   0  0  0  0  0  0  0  0  0  0  0  0
    6.6560   17.9779    0.0000 O   0  0  0  0  0  0  0  0  0  0  0  0
   12.7776    7.3982    0.0000 O   0  0  0  0  0  0  0  0  0  0  0  0
    4.0579   19.4779    0.0000 O   0  0  0  0  0  0  0  0  0  0  0  0
   12.2927   11.7584    0.0000 O   0  0  0  0  0  0  0  0  0  0  0  0
    2.8600   23.5527    0.0000 O   0  0  0  0  0  0  0  0  0  0  0  0
   13.5802   10.0458    0.0000 O   0  0  0  0  0  0  0  0  0  0  0  0
    2.4258   21.3351    0.0000 O   0  0  0  0  0  0  0  0  0  0  0  0
   14.5474   11.8404    0.0000 O   0  0  0  0  0  0  0  0  0  0  0  0
    0.7455   22.7657    0.0000 O   0  0  0  0  0  0  0  0  0  0  0  0
   11.6599    7.7477    0.0000 O   0  0  0  0  0  0  0  0  0  0  0  0
    5.0579   20.4779    0.0000 O   0  0  0  0  0  0  0  0  0  0  0  0
    8.0856    6.3589    0.0000 O   0  0  0  0  0  0  0  0  0  0  0  0
    9.2541   22.4779    0.0000 O   0  0  0  0  0  0  0  0  0  0  0  0
    7.2195    7.8589    0.0000 O   0  0  0  0  0  0  0  0  0  0  0  0
   10.9861   22.4779    0.0000 O   0  0  0  0  0  0  0  0  0  0  0  0
    4.6215    8.3589    0.0000 O   0  0  0  0  0  0  0  0  0  0  0  0
   12.7182   20.4779    0.0000 O   0  0  0  0  0  0  0  0  0  0  0  0
    4.6215    6.3589    0.0000 O   0  0  0  0  0  0  0  0  0  0  0  0
   10.9861   19.4779    0.0000 O   0  0  0  0  0  0  0  0  0  0  0  0
    2.8894    8.3589    0.0000 O   0  0  0  0  0  0  0  0  0  0  0  0
   13.5842   21.9779    0.0000 O   0  0  0  0  0  0  0  0  0  0  0  0
    2.8894    5.3589    0.0000 O   0  0  0  0  0  0  0  0  0  0  0  0
   16.1823   20.4779    0.0000 O   0  0  0  0  0  0  0  0  0  0  0  0
    1.1574    6.3589    0.0000 O   0  0  0  0  0  0  0  0  0  0  0  0
   16.1823   22.4779    0.0000 O   0  0  0  0  0  0  0  0  0  0  0  0
   13.3099    4.8066    0.0000 C   0  0  2  0  0  0  0  0  0  0  0  0
   13.9728    3.2064    0.0000 C   0  0  1  0  0  0  0  0  0  0  0  0
   14.8966    3.5890    0.0000 C   0  0  2  0  0  0  0  0  0  0  0  0
   14.2338    5.1892    0.0000 C   0  0  0  0  0  0  0  0  0  0  0  0
    5.7900   17.4779    0.0000 C   0  0  2  0  0  0  0  0  0  0  0  0
   13.4405    5.7980    0.0000 C   0  0  0  0  0  0  0  0  0  0  0  0
   15.0272    4.5805    0.0000 C   0  0  0  0  0  0  0  0  0  0  0  0
   12.6471    6.4068    0.0000 C   0  0  2  0  0  0  0  0  0  0  0  0
    4.9240   16.9779    0.0000 C   0  0  0  0  0  0  0  0  0  0  0  0
    6.6560   15.9779    0.0000 C   0  0  1  0  0  0  0  0  0  0  0  0
    5.7900   15.4779    0.0000 C   0  0  2  0  0  0  0  0  0  0  0  0
    4.9240   17.9779    0.0000 C   0  0  0  0  0  0  0  0  0  0  0  0
   13.8422    2.2149    0.0000 C   0  0  1  0  0  0  0  0  0  0  0  0
   11.5927    5.0326    0.0000 C   0  0  1  0  0  0  0  0  0  0  0  0
   11.7232    6.0241    0.0000 C   0  0  0  0  0  0  0  0  0  0  0  0
    4.9240   15.9779    0.0000 C   0  0  0  0  0  0  0  0  0  0  0  0
    4.9240   18.9779    0.0000 C   0  0  2  0  0  0  0  0  0  0  0  0
    6.6560   18.9779    0.0000 C   0  0  1  0  0  0  0  0  0  0  0  0
    5.7900   19.4779    0.0000 C   0  0  0  0  0  0  0  0  0  0  0  0
    7.5220   15.4779    0.0000 C   0  0  0  0  0  0  0  0  0  0  0  0
   15.6900    2.9803    0.0000 C   0  0  0  0  0  0  0  0  0  0  0  0
   12.5887   10.1764    0.0000 C   0  0  2  0  0  0  0  0  0  0  0  0
   10.6688    4.6499    0.0000 C   0  0  0  0  0  0  0  0  0  0  0  0
   14.6356    1.6061    0.0000 C   0  0  0  0  0  0  0  0  0  0  0  0
   12.9714    9.2525    0.0000 C   0  0  2  0  0  0  0  0  0  0  0  0
    3.1919   21.9779    0.0000 C   0  0  2  0  0  0  0  0  0  0  0  0
   13.0144   11.0747    0.0000 C   0  0  1  0  0  0  0  0  0  0  0  0
    5.7900   14.4779    0.0000 C   0  0  0  0  0  0  0  0  0  0  0  0
   12.9184    1.8322    0.0000 C   0  0  0  0  0  0  0  0  0  0  0  0
    3.1919   20.9779    0.0000 C   0  0  2  0  0  0  0  0  0  0  0  0
    2.4549   22.6450    0.0000 C   0  0  1  0  0  0  0  0  0  0  0  0
    7.5220   19.4779    0.0000 C   0  0  0  0  0  0  0  0  0  0  0  0
   12.3627    8.4591    0.0000 C   0  0  0  0  0  0  0  0  0  0  0  0
   13.9999   11.0036    0.0000 C   0  0  1  0  0  0  0  0  0  0  0  0
   11.5973   10.3069    0.0000 C   0  0  0  0  0  0  0  0  0  0  0  0
    1.5716   22.2022    0.0000 C   0  0  1  0  0  0  0  0  0  0  0  0
    7.5220   14.4779    0.0000 C   0  0  0  0  0  0  0  0  0  0  0  0
    8.3881   15.9779    0.0000 C   0  0  0  0  0  0  0  0  0  0  0  0
    4.0579   20.4779    0.0000 C   0  0  0  0  0  0  0  0  0  0  0  0
    4.0579   22.4779    0.0000 C   0  0  0  0  0  0  0  0  0  0  0  0
   13.9592    9.2770    0.0000 C   0  0  0  0  0  0  0  0  0  0  0  0
   14.4595   10.1290    0.0000 C   0  0  0  0  0  0  0  0  0  0  0  0
   11.4187   11.2848    0.0000 C   0  0  0  0  0  0  0  0  0  0  0  0
    2.2700   20.6226    0.0000 C   0  0  0  0  0  0  0  0  0  0  0  0
    9.8755    5.2587    0.0000 C   0  0  0  0  0  0  0  0  0  0  0  0
   14.5051    0.6147    0.0000 C   0  0  0  0  0  0  0  0  0  0  0  0
    1.4817   21.2182    0.0000 C   0  0  0  0  0  0  0  0  0  0  0  0
    3.8487   23.4497    0.0000 C   0  0  0  0  0  0  0  0  0  0  0  0
    7.5220   20.4779    0.0000 C   0  0  0  0  0  0  0  0  0  0  0  0
    9.7449    6.2502    0.0000 C   0  0  0  0  0  0  0  0  0  0  0  0
   10.9885    9.5135    0.0000 C   0  0  0  0  0  0  0  0  0  0  0  0
    4.9240   21.9779    0.0000 C   0  0  0  0  0  0  0  0  0  0  0  0
    8.9516    6.8589    0.0000 C   0  0  2  0  0  0  0  0  0  0  0  0
    8.3881   20.9779    0.0000 C   0  0  0  0  0  0  0  0  0  0  0  0
   15.4592   10.1055    0.0000 C   0  0  0  0  0  0  0  0  0  0  0  0
    0.5671   20.8139    0.0000 C   0  0  0  0  0  0  0  0  0  0  0  0
    8.3881   21.9779    0.0000 C   0  0  2  0  0  0  0  0  0  0  0  0
    8.8211    7.8504    0.0000 C   0  0  2  0  0  0  0  0  0  0  0  0
    7.5220   22.4779    0.0000 C   0  0  2  0  0  0  0  0  0  0  0  0
    9.9971    9.3830    0.0000 C   0  0  0  0  0  0  0  0  0  0  0  0
   10.6110    6.7502    0.0000 C   0  0  0  0  0  0  0  0  0  0  0  0
    5.7900   22.4779    0.0000 C   0  0  0  0  0  0  0  0  0  0  0  0
    9.6144    8.4591    0.0000 C   0  0  0  0  0  0  0  0  0  0  0  0
    9.2541   20.4779    0.0000 C   0  0  0  0  0  0  0  0  0  0  0  0
    6.6560   21.9779    0.0000 C   0  0  0  0  0  0  0  0  0  0  0  0
    7.2195    6.8589    0.0000 C   0  0  2  0  0  0  0  0  0  0  0  0
    7.8972    8.2330    0.0000 C   0  0  0  0  0  0  0  0  0  0  0  0
   10.1201   21.9779    0.0000 C   0  0  2  0  0  0  0  0  0  0  0  0
    7.5220   23.4779    0.0000 C   0  0  0  0  0  0  0  0  0  0  0  0
    6.3535    6.3589    0.0000 C   0  0  0  0  0  0  0  0  0  0  0  0
    5.4875    6.8589    0.0000 C   0  0  1  0  0  0  0  0  0  0  0  0
   10.1201   20.9779    0.0000 C   0  0  0  0  0  0  0  0  0  0  0  0
    5.4875    7.8589    0.0000 C   0  0  2  0  0  0  0  0  0  0  0  0
    6.3535    8.3589    0.0000 C   0  0  2  0  0  0  0  0  0  0  0  0
   10.9861   20.4779    0.0000 C   0  0  1  0  0  0  0  0  0  0  0  0
   11.8522   20.9779    0.0000 C   0  0  2  0  0  0  0  0  0  0  0  0
   11.8522   21.9779    0.0000 C   0  0  2  0  0  0  0  0  0  0  0  0
    6.3535    9.3589    0.0000 C   0  0  0  0  0  0  0  0  0  0  0  0
   12.7182   22.4779    0.0000 C   0  0  0  0  0  0  0  0  0  0  0  0
    3.7554    7.8589    0.0000 C   0  0  2  0  0  0  0  0  0  0  0  0
   13.5842   20.9779    0.0000 C   0  0  2  0  0  0  0  0  0  0  0  0
    3.7554    6.8589    0.0000 C   0  0  0  0  0  0  0  0  0  0  0  0
   14.4502   20.4779    0.0000 C   0  0  0  0  0  0  0  0  0  0  0  0
    2.8894    6.3589    0.0000 C   0  0  1  0  0  0  0  0  0  0  0  0
   15.3163   20.9779    0.0000 C   0  0  1  0  0  0  0  0  0  0  0  0
    2.0234    6.8589    0.0000 C   0  0  2  0  0  0  0  0  0  0  0  0
    2.0234    7.8589    0.0000 C   0  0  2  0  0  0  0  0  0  0  0  0
   15.3163   21.9779    0.0000 C   0  0  2  0  0  0  0  0  0  0  0  0
   14.4502   22.4779    0.0000 C   0  0  2  0  0  0  0  0  0  0  0  0
    4.6215    5.3589    0.0000 C   0  0  0  0  0  0  0  0  0  0  0  0
   11.8522   18.9779    0.0000 C   0  0  0  0  0  0  0  0  0  0  0  0
    1.1574    8.3589    0.0000 C   0  0  0  0  0  0  0  0  0  0  0  0
   14.4502   23.4779    0.0000 C   0  0  0  0  0  0  0  0  0  0  0  0
    3.7554    4.8589    0.0000 C   0  0  0  0  0  0  0  0  0  0  0  0
   16.1823   19.4779    0.0000 C   0  0  0  0  0  0  0  0  0  0  0  0
   14.6471    2.6889    0.0000 H   0  0  0  0  0  0  0  0  0  0  0  0
   15.4694    3.8263    0.0000 H   0  0  0  0  0  0  0  0  0  0  0  0
   14.6909    5.6081    0.0000 H   0  0  0  0  0  0  0  0  0  0  0  0
   13.9007    5.7121    0.0000 H   0  0  0  0  0  0  0  0  0  0  0  0
   14.0318    5.6116    0.0000 H   0  0  0  0  0  0  0  0  0  0  0  0
   13.7267    6.3479    0.0000 H   0  0  0  0  0  0  0  0  0  0  0  0
   15.6185    4.3940    0.0000 H   0  0  0  0  0  0  0  0  0  0  0  0
   15.3134    5.1304    0.0000 H   0  0  0  0  0  0  0  0  0  0  0  0
   13.4324    6.7320    0.0000 H   0  0  0  0  0  0  0  0  0  0  0  0
    4.7119   17.5605    0.0000 H   0  0  0  0  0  0  0  0  0  0  0  0
    4.3134   16.8702    0.0000 H   0  0  0  0  0  0  0  0  0  0  0  0
    7.1930   16.2879    0.0000 H   0  0  0  0  0  0  0  0  0  0  0  0
    6.3269   15.1679    0.0000 H   0  0  0  0  0  0  0  0  0  0  0  0
    4.3134   18.0855    0.0000 H   0  0  0  0  0  0  0  0  0  0  0  0
    4.7119   17.3953    0.0000 H   0  0  0  0  0  0  0  0  0  0  0  0
   13.3504    2.5923    0.0000 H   0  0  0  0  0  0  0  0  0  0  0  0
   11.4818    4.1899    0.0000 H   0  0  0  0  0  0  0  0  0  0  0  0
   11.5890    6.6294    0.0000 H   0  0  0  0  0  0  0  0  0  0  0  0
   11.1038    5.9970    0.0000 H   0  0  0  0  0  0  0  0  0  0  0  0
    4.3134   16.0855    0.0000 H   0  0  0  0  0  0  0  0  0  0  0  0
    4.7119   15.3953    0.0000 H   0  0  0  0  0  0  0  0  0  0  0  0
    4.1878   18.5529    0.0000 H   0  0  0  0  0  0  0  0  0  0  0  0
    7.3921   18.5529    0.0000 H   0  0  0  0  0  0  0  0  0  0  0  0
    6.1885   19.9528    0.0000 H   0  0  0  0  0  0  0  0  0  0  0  0
    5.3915   19.9528    0.0000 H   0  0  0  0  0  0  0  0  0  0  0  0
    7.5220   16.0979    0.0000 H   0  0  0  0  0  0  0  0  0  0  0  0
   15.3126    2.4884    0.0000 H   0  0  0  0  0  0  0  0  0  0  0  0
   16.1819    2.6028    0.0000 H   0  0  0  0  0  0  0  0  0  0  0  0
   16.0674    3.4722    0.0000 H   0  0  0  0  0  0  0  0  0  0  0  0
   10.2117    4.2311    0.0000 H   0  0  0  0  0  0  0  0  0  0  0  0
   11.0019    4.1270    0.0000 H   0  0  0  0  0  0  0  0  0  0  0  0
   15.2269    1.4197    0.0000 H   0  0  0  0  0  0  0  0  0  0  0  0
   14.9219    2.1561    0.0000 H   0  0  0  0  0  0  0  0  0  0  0  0
   13.2967    8.4672    0.0000 H   0  0  0  0  0  0  0  0  0  0  0  0
   13.3572   11.8525    0.0000 H   0  0  0  0  0  0  0  0  0  0  0  0
    5.1700   14.4779    0.0000 H   0  0  0  0  0  0  0  0  0  0  0  0
    5.7900   13.8579    0.0000 H   0  0  0  0  0  0  0  0  0  0  0  0
    6.4100   14.4779    0.0000 H   0  0  0  0  0  0  0  0  0  0  0  0
   12.6811    2.4050    0.0000 H   0  0  0  0  0  0  0  0  0  0  0  0
   12.3455    1.5950    0.0000 H   0  0  0  0  0  0  0  0  0  0  0  0
   13.1556    1.2594    0.0000 H   0  0  0  0  0  0  0  0  0  0  0  0
    3.1919   20.1279    0.0000 H   0  0  0  0  0  0  0  0  0  0  0  0
    1.8405   23.2323    0.0000 H   0  0  0  0  0  0  0  0  0  0  0  0
    7.7341   18.8953    0.0000 H   0  0  0  0  0  0  0  0  0  0  0  0
    8.1326   19.5855    0.0000 H   0  0  0  0  0  0  0  0  0  0  0  0
   13.7248   11.5593    0.0000 H   0  0  0  0  0  0  0  0  0  0  0  0
    1.0108   21.9378    0.0000 H   0  0  0  0  0  0  0  0  0  0  0  0
    6.9020   14.4779    0.0000 H   0  0  0  0  0  0  0  0  0  0  0  0
    7.5220   13.8579    0.0000 H   0  0  0  0  0  0  0  0  0  0  0  0
    8.1420   14.4779    0.0000 H   0  0  0  0  0  0  0  0  0  0  0  0
    8.6981   15.4409    0.0000 H   0  0  0  0  0  0  0  0  0  0  0  0
    8.9250   16.2879    0.0000 H   0  0  0  0  0  0  0  0  0  0  0  0
    8.0781   16.5148    0.0000 H   0  0  0  0  0  0  0  0  0  0  0  0
   14.2738    8.7428    0.0000 H   0  0  0  0  0  0  0  0  0  0  0  0
   11.1822   11.8579    0.0000 H   0  0  0  0  0  0  0  0  0  0  0  0
   10.8239   11.1099    0.0000 H   0  0  0  0  0  0  0  0  0  0  0  0
    2.1837   20.0086    0.0000 H   0  0  0  0  0  0  0  0  0  0  0  0
    9.3385    4.9487    0.0000 H   0  0  0  0  0  0  0  0  0  0  0  0
   13.8904    0.6956    0.0000 H   0  0  0  0  0  0  0  0  0  0  0  0
   14.4241    0.0000    0.0000 H   0  0  0  0  0  0  0  0  0  0  0  0
   15.1198    0.5338    0.0000 H   0  0  0  0  0  0  0  0  0  0  0  0
    4.4652   23.5157    0.0000 H   0  0  0  0  0  0  0  0  0  0  0  0
    3.8478   24.0697    0.0000 H   0  0  0  0  0  0  0  0  0  0  0  0
    6.9851   20.7879    0.0000 H   0  0  0  0  0  0  0  0  0  0  0  0
   13.4460   10.6511    0.0000 H   0  0  0  0  0  0  0  0  0  0  0  0
    2.0273   21.8100    0.0000 H   0  0  0  0  0  0  0  0  0  0  0  0
   11.2985    8.9766    0.0000 H   0  0  0  0  0  0  0  0  0  0  0  0
    5.2340   21.4410    0.0000 H   0  0  0  0  0  0  0  0  0  0  0  0
    8.3955    7.1331    0.0000 H   0  0  0  0  0  0  0  0  0  0  0  0
   15.4446    9.4856    0.0000 H   0  0  0  0  0  0  0  0  0  0  0  0
   16.0791   10.0909    0.0000 H   0  0  0  0  0  0  0  0  0  0  0  0
   15.4738   10.7253    0.0000 H   0  0  0  0  0  0  0  0  0  0  0  0
    0.3164   21.3809    0.0000 H   0  0  0  0  0  0  0  0  0  0  0  0
    0.0000   20.5632    0.0000 H   0  0  0  0  0  0  0  0  0  0  0  0
    0.8178   20.2468    0.0000 H   0  0  0  0  0  0  0  0  0  0  0  0
    8.3881   22.5979    0.0000 H   0  0  0  0  0  0  0  0  0  0  0  0
   15.1665   11.8058    0.0000 H   0  0  0  0  0  0  0  0  0  0  0  0
    8.7401    8.4651    0.0000 H   0  0  0  0  0  0  0  0  0  0  0  0
    0.1869   22.4968    0.0000 H   0  0  0  0  0  0  0  0  0  0  0  0
    6.9851   22.7879    0.0000 H   0  0  0  0  0  0  0  0  0  0  0  0
    9.6197    9.8749    0.0000 H   0  0  0  0  0  0  0  0  0  0  0  0
   10.9210    6.2132    0.0000 H   0  0  0  0  0  0  0  0  0  0  0  0
   11.1479    7.0602    0.0000 H   0  0  0  0  0  0  0  0  0  0  0  0
   10.3010    7.2871    0.0000 H   0  0  0  0  0  0  0  0  0  0  0  0
    5.7900   23.0979    0.0000 H   0  0  0  0  0  0  0  0  0  0  0  0
   10.1063    8.0817    0.0000 H   0  0  0  0  0  0  0  0  0  0  0  0
    8.9441   19.9409    0.0000 H   0  0  0  0  0  0  0  0  0  0  0  0
    9.7910   20.1679    0.0000 H   0  0  0  0  0  0  0  0  0  0  0  0
    9.5641   21.0148    0.0000 H   0  0  0  0  0  0  0  0  0  0  0  0
    6.6560   21.3579    0.0000 H   0  0  0  0  0  0  0  0  0  0  0  0
    7.2195    6.2389    0.0000 H   0  0  0  0  0  0  0  0  0  0  0  0
    8.1344    8.8058    0.0000 H   0  0  0  0  0  0  0  0  0  0  0  0
    7.3244    8.4703    0.0000 H   0  0  0  0  0  0  0  0  0  0  0  0
    7.6599    7.6602    0.0000 H   0  0  0  0  0  0  0  0  0  0  0  0
    9.5832   21.6679    0.0000 H   0  0  0  0  0  0  0  0  0  0  0  0
    8.1420   23.4779    0.0000 H   0  0  0  0  0  0  0  0  0  0  0  0
    7.5220   24.0979    0.0000 H   0  0  0  0  0  0  0  0  0  0  0  0
    6.9020   23.4779    0.0000 H   0  0  0  0  0  0  0  0  0  0  0  0
    5.9550    5.8840    0.0000 H   0  0  0  0  0  0  0  0  0  0  0  0
    6.7520    5.8840    0.0000 H   0  0  0  0  0  0  0  0  0  0  0  0
    5.4875    6.2389    0.0000 H   0  0  0  0  0  0  0  0  0  0  0  0
    9.5095   21.0855    0.0000 H   0  0  0  0  0  0  0  0  0  0  0  0
    9.9081   20.3953    0.0000 H   0  0  0  0  0  0  0  0  0  0  0  0
    5.4875    8.4789    0.0000 H   0  0  0  0  0  0  0  0  0  0  0  0
    6.8904    8.6689    0.0000 H   0  0  0  0  0  0  0  0  0  0  0  0
   11.5231   20.1679    0.0000 H   0  0  0  0  0  0  0  0  0  0  0  0
   12.3891   21.2879    0.0000 H   0  0  0  0  0  0  0  0  0  0  0  0
   11.8522   22.5979    0.0000 H   0  0  0  0  0  0  0  0  0  0  0  0
    6.9735    9.3589    0.0000 H   0  0  0  0  0  0  0  0  0  0  0  0
    6.3535    9.9789    0.0000 H   0  0  0  0  0  0  0  0  0  0  0  0
    5.7335    9.3589    0.0000 H   0  0  0  0  0  0  0  0  0  0  0  0
    3.7554    8.4789    0.0000 H   0  0  0  0  0  0  0  0  0  0  0  0
   13.0282   21.9409    0.0000 H   0  0  0  0  0  0  0  0  0  0  0  0
   13.2551   22.7879    0.0000 H   0  0  0  0  0  0  0  0  0  0  0  0
   12.4082   23.0148    0.0000 H   0  0  0  0  0  0  0  0  0  0  0  0
   13.0473   21.2879    0.0000 H   0  0  0  0  0  0  0  0  0  0  0  0
    3.9675    6.2763    0.0000 H   0  0  0  0  0  0  0  0  0  0  0  0
    4.3660    6.9666    0.0000 H   0  0  0  0  0  0  0  0  0  0  0  0
   14.0517   20.0029    0.0000 H   0  0  0  0  0  0  0  0  0  0  0  0
   14.8488   20.0029    0.0000 H   0  0  0  0  0  0  0  0  0  0  0  0
    3.4263    6.0489    0.0000 H   0  0  0  0  0  0  0  0  0  0  0  0
   15.3163   20.3579    0.0000 H   0  0  0  0  0  0  0  0  0  0  0  0
    2.0234    6.2389    0.0000 H   0  0  0  0  0  0  0  0  0  0  0  0
    2.0234    8.4789    0.0000 H   0  0  0  0  0  0  0  0  0  0  0  0
   15.8532   21.6679    0.0000 H   0  0  0  0  0  0  0  0  0  0  0  0
   13.9133   22.7879    0.0000 H   0  0  0  0  0  0  0  0  0  0  0  0
    4.0015    5.3589    0.0000 H   0  0  0  0  0  0  0  0  0  0  0  0
    4.6215    4.7389    0.0000 H   0  0  0  0  0  0  0  0  0  0  0  0
    5.2415    5.3589    0.0000 H   0  0  0  0  0  0  0  0  0  0  0  0
   11.5422   18.4409    0.0000 H   0  0  0  0  0  0  0  0  0  0  0  0
   12.3891   18.6679    0.0000 H   0  0  0  0  0  0  0  0  0  0  0  0
   12.1622   19.5148    0.0000 H   0  0  0  0  0  0  0  0  0  0  0  0
    1.4674    8.8958    0.0000 H   0  0  0  0  0  0  0  0  0  0  0  0
    0.6204    8.6689    0.0000 H   0  0  0  0  0  0  0  0  0  0  0  0
    0.8474    7.8220    0.0000 H   0  0  0  0  0  0  0  0  0  0  0  0
   15.0702   23.4779    0.0000 H   0  0  0  0  0  0  0  0  0  0  0  0
   14.4502   24.0979    0.0000 H   0  0  0  0  0  0  0  0  0  0  0  0
   13.8302   23.4779    0.0000 H   0  0  0  0  0  0  0  0  0  0  0  0
    0.6204    6.6689    0.0000 H   0  0  0  0  0  0  0  0  0  0  0  0
   16.7192   22.1679    0.0000 H   0  0  0  0  0  0  0  0  0  0  0  0
    3.4454    4.3220    0.0000 H   0  0  0  0  0  0  0  0  0  0  0  0
    4.2924    4.5489    0.0000 H   0  0  0  0  0  0  0  0  0  0  0  0
    4.0654    5.3958    0.0000 H   0  0  0  0  0  0  0  0  0  0  0  0
   15.5623   19.4779    0.0000 H   0  0  0  0  0  0  0  0  0  0  0  0
   16.1823   18.8579    0.0000 H   0  0  0  0  0  0  0  0  0  0  0  0
   16.8023   19.4779    0.0000 H   0  0  0  0  0  0  0  0  0  0  0  0
 29  1  1  1  0  0  0
  1 30  1  0  0  0  0
  2 29  1  0  0  0  0
  2 42  1  0  0  0  0
 33  3  1  6  0  0  0
  3 38  1  0  0  0  0
  4 33  1  0  0  0  0
  4 46  1  0  0  0  0
  5 36  1  0  0  0  0
  5 61  1  0  0  0  0
  6 45  1  0  0  0  0
  6 67  1  0  0  0  0
  7 55  1  0  0  0  0
  7 71  1  0  0  0  0
  8 59  1  0  0  0  0
  8 76  1  0  0  0  0
 50  9  1  1  0  0  0
  9188  1  0  0  0  0
 54 10  1  6  0  0  0
 10189  1  0  0  0  0
 62 11  1  6  0  0  0
 11200  1  0  0  0  0
 64 12  1  1  0  0  0
 12202  1  0  0  0  0
 13 61  2  0  0  0  0
 14 67  2  0  0  0  0
 81 15  1  1  0  0  0
 94 15  1  1  0  0  0
 85 16  1  6  0  0  0
 96 16  1  6  0  0  0
 17 94  1  0  0  0  0
 17102  1  0  0  0  0
 18 96  1  0  0  0  0
 18105  1  0  0  0  0
101 19  1  1  0  0  0
108 19  1  1  0  0  0
104 20  1  6  0  0  0
109 20  1  6  0  0  0
 99 21  1  6  0  0  0
 21118  1  0  0  0  0
103 22  1  1  0  0  0
 22119  1  0  0  0  0
 23108  1  0  0  0  0
 23115  1  0  0  0  0
 24109  1  0  0  0  0
 24117  1  0  0  0  0
112 25  1  6  0  0  0
 25122  1  0  0  0  0
113 26  1  1  0  0  0
 26123  1  0  0  0  0
114 27  1  1  0  0  0
 27262  1  0  0  0  0
116 28  1  6  0  0  0
 28263  1  0  0  0  0
 29 32  1  0  0  0  0
 29 34  1  0  0  0  0
 30 31  1  0  0  0  0
 30 41  1  0  0  0  0
 30124  1  6  0  0  0
 31 35  1  0  0  0  0
 31 49  1  6  0  0  0
 31125  1  0  0  0  0
 32 35  1  0  0  0  0
 32126  1  0  0  0  0
 32127  1  0  0  0  0
 33 37  1  0  0  0  0
 33 40  1  0  0  0  0
 34 36  1  0  0  0  0
 34128  1  0  0  0  0
 34129  1  0  0  0  0
 35130  1  0  0  0  0
 35131  1  0  0  0  0
 36 43  1  0  0  0  0
 36132  1  1  0  0  0
 37 44  1  0  0  0  0
 37133  1  0  0  0  0
 37134  1  0  0  0  0
 38 39  1  0  0  0  0
 38 48  1  6  0  0  0
 38135  1  0  0  0  0
 39 44  1  0  0  0  0
 39 56  1  1  0  0  0
 39136  1  0  0  0  0
 40 45  1  0  0  0  0
 40137  1  0  0  0  0
 40138  1  0  0  0  0
 41 52  1  0  0  0  0
 41 57  1  1  0  0  0
 41139  1  0  0  0  0
 42 43  1  0  0  0  0
 42 51  1  0  0  0  0
 42140  1  1  0  0  0
 43141  1  0  0  0  0
 43142  1  0  0  0  0
 44143  1  0  0  0  0
 44144  1  0  0  0  0
 45 47  1  0  0  0  0
 45145  1  6  0  0  0
 46 47  1  0  0  0  0
 46 60  1  0  0  0  0
 46146  1  6  0  0  0
 47147  1  0  0  0  0
 47148  1  0  0  0  0
 48 65  1  0  0  0  0
 48 66  1  0  0  0  0
 48149  1  0  0  0  0
 49150  1  0  0  0  0
 49151  1  0  0  0  0
 49152  1  0  0  0  0
 50 53  1  0  0  0  0
 50 55  1  0  0  0  0
 50 63  1  0  0  0  0
 51 73  1  0  0  0  0
 51153  1  0  0  0  0
 51154  1  0  0  0  0
 52 74  1  0  0  0  0
 52155  1  0  0  0  0
 52156  1  0  0  0  0
 53 61  1  0  0  0  0
 53 69  1  0  0  0  0
 53157  1  6  0  0  0
 54 58  1  0  0  0  0
 54 59  1  0  0  0  0
 54 68  1  0  0  0  0
 55 62  1  0  0  0  0
 55158  1  1  0  0  0
 56159  1  0  0  0  0
 56160  1  0  0  0  0
 56161  1  0  0  0  0
 57162  1  0  0  0  0
 57163  1  0  0  0  0
 57164  1  0  0  0  0
 58 67  1  0  0  0  0
 58 72  1  0  0  0  0
 58165  1  1  0  0  0
 59 64  1  0  0  0  0
 59166  1  6  0  0  0
 60 77  1  0  0  0  0
 60167  1  0  0  0  0
 60168  1  0  0  0  0
 62 70  1  0  0  0  0
 62169  1  0  0  0  0
 63 71  1  0  0  0  0
 63 79  2  0  0  0  0
 64 75  1  0  0  0  0
 64170  1  0  0  0  0
 65171  1  0  0  0  0
 65172  1  0  0  0  0
 65173  1  0  0  0  0
 66174  1  0  0  0  0
 66175  1  0  0  0  0
 66176  1  0  0  0  0
 68 76  1  0  0  0  0
 68 80  2  0  0  0  0
 69 70  2  0  0  0  0
 69177  1  0  0  0  0
 70 83  1  0  0  0  0
 71178  1  0  0  0  0
 71179  1  0  0  0  0
 72 75  2  0  0  0  0
 72180  1  0  0  0  0
 73 78  2  0  0  0  0
 73181  1  0  0  0  0
 74182  1  0  0  0  0
 74183  1  0  0  0  0
 74184  1  0  0  0  0
 75 84  1  0  0  0  0
 76185  1  0  0  0  0
 76186  1  0  0  0  0
 77 82  2  0  0  0  0
 77187  1  0  0  0  0
 78 81  1  0  0  0  0
 78 89  1  0  0  0  0
 79 88  1  0  0  0  0
 79190  1  0  0  0  0
 80 90  1  0  0  0  0
 80191  1  0  0  0  0
 81 86  1  0  0  0  0
 81192  1  0  0  0  0
 82 85  1  0  0  0  0
 82 92  1  0  0  0  0
 83193  1  0  0  0  0
 83194  1  0  0  0  0
 83195  1  0  0  0  0
 84196  1  0  0  0  0
 84197  1  0  0  0  0
 84198  1  0  0  0  0
 85 87  1  0  0  0  0
 85199  1  0  0  0  0
 86 91  1  0  0  0  0
 86 95  1  1  0  0  0
 86201  1  0  0  0  0
 87 93  1  0  0  0  0
 87 97  1  6  0  0  0
 87203  1  0  0  0  0
 88 91  2  0  0  0  0
 88204  1  0  0  0  0
 89205  1  0  0  0  0
 89206  1  0  0  0  0
 89207  1  0  0  0  0
 90 93  2  0  0  0  0
 90208  1  0  0  0  0
 91209  1  0  0  0  0
 92210  1  0  0  0  0
 92211  1  0  0  0  0
 92212  1  0  0  0  0
 93213  1  0  0  0  0
 94 98  1  0  0  0  0
 94214  1  0  0  0  0
 95215  1  0  0  0  0
 95216  1  0  0  0  0
 95217  1  0  0  0  0
 96100  1  0  0  0  0
 96218  1  0  0  0  0
 97219  1  0  0  0  0
 97220  1  0  0  0  0
 97221  1  0  0  0  0
 98 99  1  0  0  0  0
 98222  1  0  0  0  0
 98223  1  0  0  0  0
 99101  1  0  0  0  0
 99224  1  0  0  0  0
100103  1  0  0  0  0
100225  1  0  0  0  0
100226  1  0  0  0  0
101102  1  0  0  0  0
101227  1  0  0  0  0
102106  1  6  0  0  0
102228  1  0  0  0  0
103104  1  0  0  0  0
103229  1  0  0  0  0
104105  1  0  0  0  0
104230  1  0  0  0  0
105107  1  1  0  0  0
105231  1  0  0  0  0
106232  1  0  0  0  0
106233  1  0  0  0  0
106234  1  0  0  0  0
107236  1  0  0  0  0
107237  1  0  0  0  0
107238  1  0  0  0  0
108110  1  0  0  0  0
108235  1  0  0  0  0
109111  1  0  0  0  0
109239  1  0  0  0  0
110112  1  0  0  0  0
110240  1  0  0  0  0
110241  1  0  0  0  0
111113  1  0  0  0  0
111242  1  0  0  0  0
111243  1  0  0  0  0
112114  1  0  0  0  0
112244  1  0  0  0  0
113116  1  0  0  0  0
113245  1  0  0  0  0
114115  1  0  0  0  0
114246  1  0  0  0  0
115120  1  6  0  0  0
115247  1  0  0  0  0
116117  1  0  0  0  0
116248  1  0  0  0  0
117121  1  1  0  0  0
117249  1  0  0  0  0
118250  1  0  0  0  0
118251  1  0  0  0  0
118252  1  0  0  0  0
119253  1  0  0  0  0
119254  1  0  0  0  0
119255  1  0  0  0  0
120256  1  0  0  0  0
120257  1  0  0  0  0
120258  1  0  0  0  0
121259  1  0  0  0  0
121260  1  0  0  0  0
121261  1  0  0  0  0
122264  1  0  0  0  0
122265  1  0  0  0  0
122266  1  0  0  0  0
123267  1  0  0  0  0
123268  1  0  0  0  0
123269  1  0  0  0  0
M  END
> <PUBCHEM_COMPOUND_CID>
46936176

> <PUBCHEM_COMPOUND_CANONICALIZED>
1

> <PUBCHEM_CACTVS_COMPLEXITY>
3340

> <PUBCHEM_CACTVS_HBOND_ACCEPTOR>
28

> <PUBCHEM_CACTVS_HBOND_DONOR>
6

> <PUBCHEM_CACTVS_ROTATABLE_BOND>
15

> <PUBCHEM_CACTVS_SUBSKEYS>
AAADcfB8PgAAAAAAAAAAAAAAAAAAASJAAAAkSJEiQAAAAEAAAAAAGgAACAAADVSwgAMCCAAABgCIAiDSCAAAAAAgAAAICAEAAAgZFBYAIQAiUAAF4AAPsAPK7OzOgAAAAAAAAAAAAAAAAAAAAAAAAAAAAA==

> <PUBCHEM_IUPAC_OPENEYE_NAME>
(1R,4S,5'S,6R,6'R,8R,10E,12S,13S,14E,16E,20R,21R,24S)-21,24-dihydroxy-12-[(2R,4S,5S,6S)-5-[(2S,4S,5S,6S)-5-hydroxy-4-methoxy-6-methyl-tetrahydropyran-2-yl]oxy-4-methoxy-6-methyl-tetrahydropyran-2-yl]oxy-6'-isopropyl-5',11,13,22-tetramethyl-spiro[3,7,19-trioxatetracyclo[15.6.1.14,8.020,24]pentacosa-10,14,16,22-tetraene-6,2'-tetrahydropyran]-2-one;(1R,4S,5'S,6R,6'R,8R,10E,12S,13S,14E,16E,20R,21R,24S)-21,24-dihydroxy-12-[(2R,4S,5S,6S)-5-[(2S,4S,5S,6S)-5-hydroxy-4-methoxy-6-methyl-tetrahydropyran-2-yl]oxy-4-methoxy-6-methyl-tetrahydropyran-2-yl]oxy-5',11,13,22-tetramethyl-6'-[(1R)-1-methylpropyl]spiro[3,7,19-trioxatetracyclo[15.6.1.14,8.020,24]pentacosa-10,14,16,22-tetraene-6,2'-tetrahydropyran]-2-one

> <PUBCHEM_IUPAC_CAS_NAME>
(1R,4S,5'S,6R,6'R,8R,10E,12S,13S,14E,16E,20R,21R,24S)-6'-[(2R)-butan-2-yl]-21,24-dihydroxy-12-[[(2R,4S,5S,6S)-5-[[(2S,4S,5S,6S)-5-hydroxy-4-methoxy-6-methyl-2-oxanyl]oxy]-4-methoxy-6-methyl-2-oxanyl]oxy]-5',11,13,22-tetramethyl-2-spiro[3,7,19-trioxatetracyclo[15.6.1.14,8.020,24]pentacosa-10,14,16,22-tetraene-6,2'-oxane]one;(1R,4S,5'S,6R,6'R,8R,10E,12S,13S,14E,16E,20R,21R,24S)-21,24-dihydroxy-12-[[(2R,4S,5S,6S)-5-[[(2S,4S,5S,6S)-5-hydroxy-4-methoxy-6-methyl-2-oxanyl]oxy]-4-methoxy-6-methyl-2-oxanyl]oxy]-5',11,13,22-tetramethyl-6'-propan-2-yl-2-spiro[3,7,19-trioxatetracyclo[15.6.1.14,8.020,24]pentacosa-10,14,16,22-tetraene-6,2'-oxane]one

> <PUBCHEM_IUPAC_NAME_MARKUP>
(1<I>R</I>,4<I>S</I>,5&apos;<I>S</I>,6<I>R</I>,6&apos;<I>R</I>,8<I>R</I>,10<I>E</I>,12<I>S</I>,13<I>S</I>,14<I>E</I>,16<I>E</I>,20<I>R</I>,21<I>R</I>,24<I>S</I>)-6&apos;-[(2<I>R</I>)-butan-2-yl]-21,24-dihydroxy-12-[(2<I>R</I>,4<I>S</I>,5<I>S</I>,6<I>S</I>)-5-[(2<I>S</I>,4<I>S</I>,5<I>S</I>,6<I>S</I>)-5-hydroxy-4-methoxy-6-methyloxan-2-yl]oxy-4-methoxy-6-methyloxan-2-yl]oxy-5&apos;,11,13,22-tetramethylspiro[3,7,19-trioxatetracyclo[15.6.1.1<SUP>4,8</SUP>.0<SUP>20,24</SUP>]pentacosa-10,14,16,22-tetraene-6,2&apos;-oxane]-2-one;(1<I>R</I>,4<I>S</I>,5&apos;<I>S</I>,6<I>R</I>,6&apos;<I>R</I>,8<I>R</I>,10<I>E</I>,12<I>S</I>,13<I>S</I>,14<I>E</I>,16<I>E</I>,20<I>R</I>,21<I>R</I>,24<I>S</I>)-21,24-dihydroxy-12-[(2<I>R</I>,4<I>S</I>,5<I>S</I>,6<I>S</I>)-5-[(2<I>S</I>,4<I>S</I>,5<I>S</I>,6<I>S</I>)-5-hydroxy-4-methoxy-6-methyloxan-2-yl]oxy-4-methoxy-6-methyloxan-2-yl]oxy-5&apos;,11,13,22-tetramethyl-6&apos;-propan-2-ylspiro[3,7,19-trioxatetracyclo[15.6.1.1<SUP>4,8</SUP>.0<SUP>20,24</SUP>]pentacosa-10,14,16,22-tetraene-6,2&apos;-oxane]-2-one

> <PUBCHEM_IUPAC_NAME>
(1R,4S,5'S,6R,6'R,8R,10E,12S,13S,14E,16E,20R,21R,24S)-6'-[(2R)-butan-2-yl]-21,24-dihydroxy-12-[(2R,4S,5S,6S)-5-[(2S,4S,5S,6S)-5-hydroxy-4-methoxy-6-methyloxan-2-yl]oxy-4-methoxy-6-methyloxan-2-yl]oxy-5',11,13,22-tetramethylspiro[3,7,19-trioxatetracyclo[15.6.1.14,8.020,24]pentacosa-10,14,16,22-tetraene-6,2'-oxane]-2-one;(1R,4S,5'S,6R,6'R,8R,10E,12S,13S,14E,16E,20R,21R,24S)-21,24-dihydroxy-12-[(2R,4S,5S,6S)-5-[(2S,4S,5S,6S)-5-hydroxy-4-methoxy-6-methyloxan-2-yl]oxy-4-methoxy-6-methyloxan-2-yl]oxy-5',11,13,22-tetramethyl-6'-propan-2-ylspiro[3,7,19-trioxatetracyclo[15.6.1.14,8.020,24]pentacosa-10,14,16,22-tetraene-6,2'-oxane]-2-one

> <PUBCHEM_IUPAC_SYSTEMATIC_NAME>
(1R,4S,5'S,6R,6'R,8R,10E,12S,13S,14E,16E,20R,21R,24S)-6'-[(2R)-butan-2-yl]-12-[(2R,4S,5S,6S)-4-methoxy-5-[(2S,4S,5S,6S)-4-methoxy-6-methyl-5-oxidanyl-oxan-2-yl]oxy-6-methyl-oxan-2-yl]oxy-5',11,13,22-tetramethyl-21,24-bis(oxidanyl)spiro[3,7,19-trioxatetracyclo[15.6.1.14,8.020,24]pentacosa-10,14,16,22-tetraene-6,2'-oxane]-2-one;(1R,4S,5'S,6R,6'R,8R,10E,12S,13S,14E,16E,20R,21R,24S)-12-[(2R,4S,5S,6S)-4-methoxy-5-[(2S,4S,5S,6S)-4-methoxy-6-methyl-5-oxidanyl-oxan-2-yl]oxy-6-methyl-oxan-2-yl]oxy-5',11,13,22-tetramethyl-21,24-bis(oxidanyl)-6'-propan-2-yl-spiro[3,7,19-trioxatetracyclo[15.6.1.14,8.020,24]pentacosa-10,14,16,22-tetraene-6,2'-oxane]-2-one

> <PUBCHEM_IUPAC_TRADITIONAL_NAME>
(1R,4S,5'S,6R,6'R,8R,10E,12S,13S,14E,16E,20R,21R,24S)-21,24-dihydroxy-12-[(2R,4S,5S,6S)-5-[(2S,4S,5S,6S)-5-hydroxy-4-methoxy-6-methyl-tetrahydropyran-2-yl]oxy-4-methoxy-6-methyl-tetrahydropyran-2-yl]oxy-6'-isopropyl-5',11,13,22-tetramethyl-spiro[3,7,19-trioxatetracyclo[15.6.1.14,8.020,24]pentacosa-10,14,16,22-tetraene-6,2'-tetrahydropyran]-2-one;(1R,4S,5'S,6R,6'R,8R,10E,12S,13S,14E,16E,20R,21R,24S)-21,24-dihydroxy-12-[(2R,4S,5S,6S)-5-[(2S,4S,5S,6S)-5-hydroxy-4-methoxy-6-methyl-tetrahydropyran-2-yl]oxy-4-methoxy-6-methyl-tetrahydropyran-2-yl]oxy-5',11,13,22-tetramethyl-6'-[(1R)-1-methylpropyl]spiro[3,7,19-trioxatetracyclo[15.6.1.14,8.020,24]pentacosa-10,14,16,22-tetraene-6,2'-tetrahydropyran]-2-one

> <PUBCHEM_IUPAC_INCHI>
InChI=1S/C48H74O14.C47H72O14/c1-11-25(2)43-28(5)17-18-47(62-43)23-34-20-33(61-47)16-15-27(4)42(26(3)13-12-14-32-24-55-45-40(49)29(6)19-35(46(51)58-34)48(32,45)52)59-39-22-37(54-10)44(31(8)57-39)60-38-21-36(53-9)41(50)30(7)56-38;1-24(2)41-27(5)16-17-46(61-41)22-33-19-32(60-46)15-14-26(4)42(25(3)12-11-13-31-23-54-44-39(48)28(6)18-34(45(50)57-33)47(31,44)51)58-38-21-36(53-10)43(30(8)56-38)59-37-20-35(52-9)40(49)29(7)55-37/h12-15,19,25-26,28,30-31,33-45,49-50,52H,11,16-18,20-24H2,1-10H3;11-14,18,24-25,27,29-30,32-44,48-49,51H,15-17,19-23H2,1-10H3/b13-12+,27-15+,32-14+;12-11+,26-14+,31-13+/t25-,26+,28+,30+,31+,33-,34+,35+,36+,37+,38+,39+,40-,41+,42+,43-,44+,45-,47-,48-;25-,27-,29-,30-,32+,33-,34-,35-,36-,37-,38-,39+,40-,41+,42-,43-,44+,46+,47+/m10/s1

> <PUBCHEM_IUPAC_INCHIKEY>
SPBDXSGPUHCETR-CVSKBELMSA-N

> <PUBCHEM_EXACT_MASS>
1736.00341883

> <PUBCHEM_MOLECULAR_FORMULA>
C95H146O28

> <PUBCHEM_MOLECULAR_WEIGHT>
1736.2

> <PUBCHEM_OPENEYE_CAN_SMILES>
CCC(C)C1C(CCC2(O1)CC3CC(O2)CC=C(C(C(C=CC=C4COC5C4(C(C=C(C5O)C)C(=O)O3)O)C)OC6CC(C(C(O6)C)OC7CC(C(C(O7)C)O)OC)OC)C)C.CC1CCC2(CC3CC(O2)CC=C(C(C(C=CC=C4COC5C4(C(C=C(C5O)C)C(=O)O3)O)C)OC6CC(C(C(O6)C)OC7CC(C(C(O7)C)O)OC)OC)C)OC1C(C)C

> <PUBCHEM_OPENEYE_ISO_SMILES>
CC[C@@H](C)[C@@H]1[C@H](CC[C@@]2(O1)C[C@@H]3C[C@H](O2)C/C=C(/[C@H]([C@H](/C=C/C=C/4\CO[C@H]5[C@@]4([C@@H](C=C([C@H]5O)C)C(=O)O3)O)C)O[C@H]6C[C@@H]([C@H]([C@@H](O6)C)O[C@H]7C[C@@H]([C@H]([C@@H](O7)C)O)OC)OC)\C)C.C[C@H]1CC[C@]2(C[C@@H]3C[C@H](O2)C/C=C(/[C@H]([C@H](/C=C/C=C/4\CO[C@H]5[C@@]4([C@@H](C=C([C@H]5O)C)C(=O)O3)O)C)O[C@H]6C[C@@H]([C@H]([C@@H](O6)C)O[C@H]7C[C@@H]([C@H]([C@@H](O7)C)O)OC)OC)\C)O[C@@H]1C(C)C

> <PUBCHEM_CACTVS_TPSA>
340

> <PUBCHEM_MONOISOTOPIC_WEIGHT>
1735.00006400

> <PUBCHEM_TOTAL_CHARGE>
0

> <PUBCHEM_HEAVY_ATOM_COUNT>
123

> <PUBCHEM_ATOM_DEF_STEREO_COUNT>
39

> <PUBCHEM_ATOM_UDEF_STEREO_COUNT>
0

> <PUBCHEM_BOND_DEF_STEREO_COUNT>
6

> <PUBCHEM_BOND_UDEF_STEREO_COUNT>
0

> <PUBCHEM_ISOTOPIC_ATOM_COUNT>
0

> <PUBCHEM_COMPONENT_COUNT>
2

> <PUBCHEM_CACTVS_TAUTO_COUNT>
-1

> <PUBCHEM_COORDINATE_TYPE>
1
5
255

> <PUBCHEM_BONDANNOTATIONS>
29  1  5
54  10  6
102  106  6
105  107  5
62  11  6
115  120  6
117  121  5
64  12  5
81  15  5
94  15  5
85  16  6
96  16  6
101  19  5
108  19  5
104  20  6
109  20  6
99  21  6
103  22  5
112  25  6
113  26  5
114  27  5
116  28  6
33  3  6
30  124  6
31  49  6
36  132  5
38  48  6
39  56  5
41  57  5
42  140  5
45  145  6
46  146  6
53  157  6
55  158  5
58  165  5
59  166  6
86  95  5
87  97  6
50  9  5

$$$$
