5311221
  -OEChem-03252401532D

 71 72  0     1  0  0  0  0  0999 V2000
   10.3290   -0.8196    0.0000 O   0  0  0  0  0  0  0  0  0  0  0  0
   10.6969    2.6813    0.0000 O   0  0  0  0  0  0  0  0  0  0  0  0
    6.6094   -0.9347    0.0000 O   0  0  0  0  0  0  0  0  0  0  0  0
    3.6942    4.2874    0.0000 O   0  0  0  0  0  0  0  0  0  0  0  0
    4.8532    5.5746    0.0000 O   0  0  0  0  0  0  0  0  0  0  0  0
    9.2075    0.5653    0.0000 C   0  0  2  0  0  0  0  0  0  0  0  0
    9.3120    1.5598    0.0000 C   0  0  2  0  0  0  0  0  0  0  0  0
   10.1211    0.1586    0.0000 C   0  0  1  0  0  0  0  0  0  0  0  0
   10.2902    1.7677    0.0000 C   0  0  2  0  0  0  0  0  0  0  0  0
   10.7902    0.9017    0.0000 C   0  0  0  0  0  0  0  0  0  0  0  0
    8.3415    0.0653    0.0000 C   0  0  0  0  0  0  0  0  0  0  0  0
    8.5689    2.2289    0.0000 C   0  0  0  0  0  0  0  0  0  0  0  0
    8.3415   -0.9347    0.0000 C   0  0  0  0  0  0  0  0  0  0  0  0
    7.4755   -1.4347    0.0000 C   0  0  2  0  0  0  0  0  0  0  0  0
    8.7768    3.2071    0.0000 C   0  0  0  0  0  0  0  0  0  0  0  0
    7.4755   -2.4347    0.0000 C   0  0  0  0  0  0  0  0  0  0  0  0
    8.0337    3.8762    0.0000 C   0  0  0  0  0  0  0  0  0  0  0  0
    6.6094   -2.9347    0.0000 C   0  0  0  0  0  0  0  0  0  0  0  0
    7.0826    3.5672    0.0000 C   0  0  0  0  0  0  0  0  0  0  0  0
    6.6094   -3.9347    0.0000 C   0  0  0  0  0  0  0  0  0  0  0  0
    6.3395    4.2363    0.0000 C   0  0  0  0  0  0  0  0  0  0  0  0
    5.3884    3.9273    0.0000 C   0  0  0  0  0  0  0  0  0  0  0  0
    7.4755   -4.4347    0.0000 C   0  0  0  0  0  0  0  0  0  0  0  0
    5.7434   -4.4347    0.0000 C   0  0  0  0  0  0  0  0  0  0  0  0
    7.4755   -5.4347    0.0000 C   0  0  0  0  0  0  0  0  0  0  0  0
    5.7434   -5.4347    0.0000 C   0  0  0  0  0  0  0  0  0  0  0  0
    4.6453    4.5964    0.0000 C   0  0  0  0  0  0  0  0  0  0  0  0
    6.6094   -5.9347    0.0000 C   0  0  0  0  0  0  0  0  0  0  0  0
    2.9511    4.9566    0.0000 C   0  0  0  0  0  0  0  0  0  0  0  0
    2.0000    4.6475    0.0000 C   0  0  0  0  0  0  0  0  0  0  0  0
    3.1590    5.9347    0.0000 C   0  0  0  0  0  0  0  0  0  0  0  0
    8.6875    0.9030    0.0000 H   0  0  0  0  0  0  0  0  0  0  0  0
    9.4725    2.1587    0.0000 H   0  0  0  0  0  0  0  0  0  0  0  0
   10.7199   -0.0019    0.0000 H   0  0  0  0  0  0  0  0  0  0  0  0
   10.9093    1.8002    0.0000 H   0  0  0  0  0  0  0  0  0  0  0  0
   11.2050    0.4409    0.0000 H   0  0  0  0  0  0  0  0  0  0  0  0
   11.2918    1.2661    0.0000 H   0  0  0  0  0  0  0  0  0  0  0  0
    8.1294    0.6479    0.0000 H   0  0  0  0  0  0  0  0  0  0  0  0
    7.7309   -0.0424    0.0000 H   0  0  0  0  0  0  0  0  0  0  0  0
    7.9940    2.4612    0.0000 H   0  0  0  0  0  0  0  0  0  0  0  0
    8.2403    1.7032    0.0000 H   0  0  0  0  0  0  0  0  0  0  0  0
    8.5535   -1.5173    0.0000 H   0  0  0  0  0  0  0  0  0  0  0  0
    8.9521   -0.8270    0.0000 H   0  0  0  0  0  0  0  0  0  0  0  0
   10.9186   -1.0112    0.0000 H   0  0  0  0  0  0  0  0  0  0  0  0
   11.3135    2.7461    0.0000 H   0  0  0  0  0  0  0  0  0  0  0  0
    7.4755   -0.8147    0.0000 H   0  0  0  0  0  0  0  0  0  0  0  0
    9.3665    3.3987    0.0000 H   0  0  0  0  0  0  0  0  0  0  0  0
    7.6875   -3.0173    0.0000 H   0  0  0  0  0  0  0  0  0  0  0  0
    8.0860   -2.3270    0.0000 H   0  0  0  0  0  0  0  0  0  0  0  0
    8.1626    4.4827    0.0000 H   0  0  0  0  0  0  0  0  0  0  0  0
    6.3974   -2.3521    0.0000 H   0  0  0  0  0  0  0  0  0  0  0  0
    5.9988   -3.0424    0.0000 H   0  0  0  0  0  0  0  0  0  0  0  0
    6.6094   -0.3147    0.0000 H   0  0  0  0  0  0  0  0  0  0  0  0
    6.5940    3.1855    0.0000 H   0  0  0  0  0  0  0  0  0  0  0  0
    7.3737    3.0198    0.0000 H   0  0  0  0  0  0  0  0  0  0  0  0
    6.8280    4.6180    0.0000 H   0  0  0  0  0  0  0  0  0  0  0  0
    6.0484    4.7838    0.0000 H   0  0  0  0  0  0  0  0  0  0  0  0
    4.8998    3.5456    0.0000 H   0  0  0  0  0  0  0  0  0  0  0  0
    5.6795    3.3799    0.0000 H   0  0  0  0  0  0  0  0  0  0  0  0
    8.0124   -4.1247    0.0000 H   0  0  0  0  0  0  0  0  0  0  0  0
    5.2065   -4.1247    0.0000 H   0  0  0  0  0  0  0  0  0  0  0  0
    8.0124   -5.7447    0.0000 H   0  0  0  0  0  0  0  0  0  0  0  0
    5.2065   -5.7447    0.0000 H   0  0  0  0  0  0  0  0  0  0  0  0
    6.6094   -6.5547    0.0000 H   0  0  0  0  0  0  0  0  0  0  0  0
    3.5407    5.1482    0.0000 H   0  0  0  0  0  0  0  0  0  0  0  0
    1.8084    5.2372    0.0000 H   0  0  0  0  0  0  0  0  0  0  0  0
    1.4103    4.4559    0.0000 H   0  0  0  0  0  0  0  0  0  0  0  0
    2.1916    4.0579    0.0000 H   0  0  0  0  0  0  0  0  0  0  0  0
    3.7654    5.8058    0.0000 H   0  0  0  0  0  0  0  0  0  0  0  0
    3.2879    6.5412    0.0000 H   0  0  0  0  0  0  0  0  0  0  0  0
    2.5525    6.0636    0.0000 H   0  0  0  0  0  0  0  0  0  0  0  0
  8  1  1  1  0  0  0
  1 44  1  0  0  0  0
  9  2  1  1  0  0  0
  2 45  1  0  0  0  0
 14  3  1  6  0  0  0
  3 53  1  0  0  0  0
  4 27  1  0  0  0  0
  4 29  1  0  0  0  0
  5 27  2  0  0  0  0
  6  7  1  0  0  0  0
  6  8  1  0  0  0  0
  6 11  1  6  0  0  0
  6 32  1  0  0  0  0
  7  9  1  0  0  0  0
  7 12  1  1  0  0  0
  7 33  1  0  0  0  0
  8 10  1  0  0  0  0
  8 34  1  0  0  0  0
  9 10  1  0  0  0  0
  9 35  1  0  0  0  0
 10 36  1  0  0  0  0
 10 37  1  0  0  0  0
 11 13  1  0  0  0  0
 11 38  1  0  0  0  0
 11 39  1  0  0  0  0
 12 15  1  0  0  0  0
 12 40  1  0  0  0  0
 12 41  1  0  0  0  0
 13 14  1  0  0  0  0
 13 42  1  0  0  0  0
 13 43  1  0  0  0  0
 14 16  1  0  0  0  0
 14 46  1  0  0  0  0
 15 17  2  0  0  0  0
 15 47  1  0  0  0  0
 16 18  1  0  0  0  0
 16 48  1  0  0  0  0
 16 49  1  0  0  0  0
 17 19  1  0  0  0  0
 17 50  1  0  0  0  0
 18 20  1  0  0  0  0
 18 51  1  0  0  0  0
 18 52  1  0  0  0  0
 19 21  1  0  0  0  0
 19 54  1  0  0  0  0
 19 55  1  0  0  0  0
 20 23  2  0  0  0  0
 20 24  1  0  0  0  0
 21 22  1  0  0  0  0
 21 56  1  0  0  0  0
 21 57  1  0  0  0  0
 22 27  1  0  0  0  0
 22 58  1  0  0  0  0
 22 59  1  0  0  0  0
 23 25  1  0  0  0  0
 23 60  1  0  0  0  0
 24 26  2  0  0  0  0
 24 61  1  0  0  0  0
 25 28  2  0  0  0  0
 25 62  1  0  0  0  0
 26 28  1  0  0  0  0
 26 63  1  0  0  0  0
 28 64  1  0  0  0  0
 29 30  1  0  0  0  0
 29 31  1  0  0  0  0
 29 65  1  0  0  0  0
 30 66  1  0  0  0  0
 30 67  1  0  0  0  0
 30 68  1  0  0  0  0
 31 69  1  0  0  0  0
 31 70  1  0  0  0  0
 31 71  1  0  0  0  0
M  END
> <PUBCHEM_COMPOUND_CID>
5311221

> <PUBCHEM_COMPOUND_CANONICALIZED>
1

> <PUBCHEM_CACTVS_COMPLEXITY>
526

> <PUBCHEM_CACTVS_HBOND_ACCEPTOR>
5

> <PUBCHEM_CACTVS_HBOND_DONOR>
3

> <PUBCHEM_CACTVS_ROTATABLE_BOND>
14

> <PUBCHEM_CACTVS_SUBSKEYS>
AAADcfB4OAAAAAAAAAAAAAAAAAAAAYAAAAAwAAAAAAAAAAABAAAAGgAACAAADRSgmAIyCIAABgCIAiDSCAACAAAgAAAIiAEAAIgIMDKAERCCYAAlgAAIiAfI4PQOgAAAAAAAAAAAAAAAAAAAAIQADAAAAA==

> <PUBCHEM_IUPAC_OPENEYE_NAME>
isopropyl (Z)-7-[(1R,2R,3R,5S)-3,5-dihydroxy-2-[(3R)-3-hydroxy-5-phenyl-pentyl]cyclopentyl]hept-5-enoate

> <PUBCHEM_IUPAC_CAS_NAME>
(Z)-7-[(1R,2R,3R,5S)-3,5-dihydroxy-2-[(3R)-3-hydroxy-5-phenylpentyl]cyclopentyl]-5-heptenoic acid propan-2-yl ester

> <PUBCHEM_IUPAC_NAME_MARKUP>
propan-2-yl (<I>Z</I>)-7-[(1<I>R</I>,2<I>R</I>,3<I>R</I>,5<I>S</I>)-3,5-dihydroxy-2-[(3<I>R</I>)-3-hydroxy-5-phenylpentyl]cyclopentyl]hept-5-enoate

> <PUBCHEM_IUPAC_NAME>
propan-2-yl (Z)-7-[(1R,2R,3R,5S)-3,5-dihydroxy-2-[(3R)-3-hydroxy-5-phenylpentyl]cyclopentyl]hept-5-enoate

> <PUBCHEM_IUPAC_SYSTEMATIC_NAME>
propan-2-yl (Z)-7-[(1R,2R,3R,5S)-3,5-bis(oxidanyl)-2-[(3R)-3-oxidanyl-5-phenyl-pentyl]cyclopentyl]hept-5-enoate

> <PUBCHEM_IUPAC_TRADITIONAL_NAME>
(Z)-7-[(1R,2R,3R,5S)-3,5-dihydroxy-2-[(3R)-3-hydroxy-5-phenyl-pentyl]cyclopentyl]hept-5-enoic acid isopropyl ester

> <PUBCHEM_IUPAC_INCHI>
InChI=1S/C26H40O5/c1-19(2)31-26(30)13-9-4-3-8-12-22-23(25(29)18-24(22)28)17-16-21(27)15-14-20-10-6-5-7-11-20/h3,5-8,10-11,19,21-25,27-29H,4,9,12-18H2,1-2H3/b8-3-/t21-,22+,23+,24-,25+/m0/s1

> <PUBCHEM_IUPAC_INCHIKEY>
GGXICVAJURFBLW-CEYXHVGTSA-N

> <PUBCHEM_XLOGP3_AA>
4.3

> <PUBCHEM_EXACT_MASS>
432.28757437

> <PUBCHEM_MOLECULAR_FORMULA>
C26H40O5

> <PUBCHEM_MOLECULAR_WEIGHT>
432.6

> <PUBCHEM_OPENEYE_CAN_SMILES>
CC(C)OC(=O)CCCC=CCC1C(CC(C1CCC(CCC2=CC=CC=C2)O)O)O

> <PUBCHEM_OPENEYE_ISO_SMILES>
CC(C)OC(=O)CCC/C=C\C[C@H]1[C@H](C[C@H]([C@@H]1CC[C@H](CCC2=CC=CC=C2)O)O)O

> <PUBCHEM_CACTVS_TPSA>
87

> <PUBCHEM_MONOISOTOPIC_WEIGHT>
432.28757437

> <PUBCHEM_TOTAL_CHARGE>
0

> <PUBCHEM_HEAVY_ATOM_COUNT>
31

> <PUBCHEM_ATOM_DEF_STEREO_COUNT>
5

> <PUBCHEM_ATOM_UDEF_STEREO_COUNT>
0

> <PUBCHEM_BOND_DEF_STEREO_COUNT>
1

> <PUBCHEM_BOND_UDEF_STEREO_COUNT>
0

> <PUBCHEM_ISOTOPIC_ATOM_COUNT>
0

> <PUBCHEM_COMPONENT_COUNT>
1

> <PUBCHEM_CACTVS_TAUTO_COUNT>
1

> <PUBCHEM_COORDINATE_TYPE>
1
5
255

> <PUBCHEM_BONDANNOTATIONS>
8  1  5
9  2  5
20  23  8
20  24  8
23  25  8
24  26  8
25  28  8
26  28  8
14  3  6
6  11  6
7  12  5

$$$$
