54682461
  -OEChem-03252401462D

 75 78  0     1  0  0  0  0  0999 V2000
    9.8301    2.0490    0.0000 S   0  0  0  0  0  0  0  0  0  0  0  0
   14.1603    4.5490    0.0000 F   0  0  0  0  0  0  0  0  0  0  0  0
   13.7942    3.1830    0.0000 F   0  0  0  0  0  0  0  0  0  0  0  0
   12.7942    4.9151    0.0000 F   0  0  0  0  0  0  0  0  0  0  0  0
    6.3660   -0.9510    0.0000 O   0  0  0  0  0  0  0  0  0  0  0  0
    3.7680    0.5490    0.0000 O   0  0  0  0  0  0  0  0  0  0  0  0
    7.2320    0.5490    0.0000 O   0  0  0  0  0  0  0  0  0  0  0  0
   10.3301    1.1830    0.0000 O   0  0  0  0  0  0  0  0  0  0  0  0
    9.3301    2.9151    0.0000 O   0  0  0  0  0  0  0  0  0  0  0  0
    8.9641    1.5490    0.0000 N   0  0  0  0  0  0  0  0  0  0  0  0
   10.6962    3.5490    0.0000 N   0  0  0  0  0  0  0  0  0  0  0  0
    5.5000   -1.4510    0.0000 C   0  0  1  0  0  0  0  0  0  0  0  0
    4.6340   -0.9510    0.0000 C   0  0  0  0  0  0  0  0  0  0  0  0
    5.0000   -2.3170    0.0000 C   0  0  0  0  0  0  0  0  0  0  0  0
    6.0000   -2.3170    0.0000 C   0  0  0  0  0  0  0  0  0  0  0  0
    4.6340    0.0490    0.0000 C   0  0  0  0  0  0  0  0  0  0  0  0
    5.5000    0.5490    0.0000 C   0  0  0  0  0  0  0  0  0  0  0  0
    4.0000   -2.3170    0.0000 C   0  0  0  0  0  0  0  0  0  0  0  0
    5.5000    1.5490    0.0000 C   0  0  2  0  0  0  0  0  0  0  0  0
    7.0000   -2.3170    0.0000 C   0  0  0  0  0  0  0  0  0  0  0  0
    6.3660    0.0490    0.0000 C   0  0  0  0  0  0  0  0  0  0  0  0
    4.6340    2.0490    0.0000 C   0  0  0  0  0  0  0  0  0  0  0  0
    6.3660    2.0490    0.0000 C   0  0  0  0  0  0  0  0  0  0  0  0
    3.5000   -3.1830    0.0000 C   0  0  0  0  0  0  0  0  0  0  0  0
    7.5000   -3.1830    0.0000 C   0  0  0  0  0  0  0  0  0  0  0  0
    4.6340    3.0490    0.0000 C   0  0  0  0  0  0  0  0  0  0  0  0
    7.2320    1.5490    0.0000 C   0  0  0  0  0  0  0  0  0  0  0  0
    6.3660    3.0490    0.0000 C   0  0  0  0  0  0  0  0  0  0  0  0
    4.0000   -4.0490    0.0000 C   0  0  0  0  0  0  0  0  0  0  0  0
    2.5000   -3.1830    0.0000 C   0  0  0  0  0  0  0  0  0  0  0  0
    8.0981    2.0490    0.0000 C   0  0  0  0  0  0  0  0  0  0  0  0
    7.2320    3.5490    0.0000 C   0  0  0  0  0  0  0  0  0  0  0  0
    8.0981    3.0490    0.0000 C   0  0  0  0  0  0  0  0  0  0  0  0
    3.5000   -4.9151    0.0000 C   0  0  0  0  0  0  0  0  0  0  0  0
    2.0000   -4.0490    0.0000 C   0  0  0  0  0  0  0  0  0  0  0  0
    2.5000   -4.9151    0.0000 C   0  0  0  0  0  0  0  0  0  0  0  0
   10.6962    2.5490    0.0000 C   0  0  0  0  0  0  0  0  0  0  0  0
   11.5622    2.0490    0.0000 C   0  0  0  0  0  0  0  0  0  0  0  0
   12.4282    2.5490    0.0000 C   0  0  0  0  0  0  0  0  0  0  0  0
   12.4282    3.5490    0.0000 C   0  0  0  0  0  0  0  0  0  0  0  0
   11.5622    4.0490    0.0000 C   0  0  0  0  0  0  0  0  0  0  0  0
   13.2942    4.0490    0.0000 C   0  0  0  0  0  0  0  0  0  0  0  0
    4.0234   -0.8433    0.0000 H   0  0  0  0  0  0  0  0  0  0  0  0
    4.4219   -1.5336    0.0000 H   0  0  0  0  0  0  0  0  0  0  0  0
    4.8923   -2.9276    0.0000 H   0  0  0  0  0  0  0  0  0  0  0  0
    5.5826   -2.5290    0.0000 H   0  0  0  0  0  0  0  0  0  0  0  0
    5.4174   -2.5290    0.0000 H   0  0  0  0  0  0  0  0  0  0  0  0
    6.1077   -2.9276    0.0000 H   0  0  0  0  0  0  0  0  0  0  0  0
    4.1077   -1.7064    0.0000 H   0  0  0  0  0  0  0  0  0  0  0  0
    3.4174   -2.1049    0.0000 H   0  0  0  0  0  0  0  0  0  0  0  0
    4.9631    1.2390    0.0000 H   0  0  0  0  0  0  0  0  0  0  0  0
    7.5826   -2.1049    0.0000 H   0  0  0  0  0  0  0  0  0  0  0  0
    6.8923   -1.7064    0.0000 H   0  0  0  0  0  0  0  0  0  0  0  0
    4.0234    2.1567    0.0000 H   0  0  0  0  0  0  0  0  0  0  0  0
    4.4219    1.4664    0.0000 H   0  0  0  0  0  0  0  0  0  0  0  0
    6.9631   -3.4930    0.0000 H   0  0  0  0  0  0  0  0  0  0  0  0
    7.8100   -3.7200    0.0000 H   0  0  0  0  0  0  0  0  0  0  0  0
    8.0369   -2.8730    0.0000 H   0  0  0  0  0  0  0  0  0  0  0  0
    3.2310    0.2390    0.0000 H   0  0  0  0  0  0  0  0  0  0  0  0
    5.2540    3.0490    0.0000 H   0  0  0  0  0  0  0  0  0  0  0  0
    4.6340    3.6690    0.0000 H   0  0  0  0  0  0  0  0  0  0  0  0
    4.0140    3.0490    0.0000 H   0  0  0  0  0  0  0  0  0  0  0  0
    7.2320    0.9290    0.0000 H   0  0  0  0  0  0  0  0  0  0  0  0
    5.8291    3.3590    0.0000 H   0  0  0  0  0  0  0  0  0  0  0  0
    4.6200   -4.0490    0.0000 H   0  0  0  0  0  0  0  0  0  0  0  0
    2.1900   -2.6461    0.0000 H   0  0  0  0  0  0  0  0  0  0  0  0
    7.2320    4.1690    0.0000 H   0  0  0  0  0  0  0  0  0  0  0  0
    8.6350    3.3590    0.0000 H   0  0  0  0  0  0  0  0  0  0  0  0
    3.8100   -5.4520    0.0000 H   0  0  0  0  0  0  0  0  0  0  0  0
    1.3800   -4.0490    0.0000 H   0  0  0  0  0  0  0  0  0  0  0  0
    2.1900   -5.4520    0.0000 H   0  0  0  0  0  0  0  0  0  0  0  0
    8.9641    0.9290    0.0000 H   0  0  0  0  0  0  0  0  0  0  0  0
   11.5622    1.4290    0.0000 H   0  0  0  0  0  0  0  0  0  0  0  0
   12.9651    2.2390    0.0000 H   0  0  0  0  0  0  0  0  0  0  0  0
   11.5622    4.6690    0.0000 H   0  0  0  0  0  0  0  0  0  0  0  0
  1  8  2  0  0  0  0
  1  9  2  0  0  0  0
  1 10  1  0  0  0  0
  1 37  1  0  0  0  0
  2 42  1  0  0  0  0
  3 42  1  0  0  0  0
  4 42  1  0  0  0  0
  5 12  1  0  0  0  0
  5 21  1  0  0  0  0
  6 16  1  0  0  0  0
  6 59  1  0  0  0  0
  7 21  2  0  0  0  0
 10 31  1  0  0  0  0
 10 72  1  0  0  0  0
 11 37  2  0  0  0  0
 11 41  1  0  0  0  0
 12 13  1  0  0  0  0
 12 14  1  0  0  0  0
 12 15  1  1  0  0  0
 13 16  1  0  0  0  0
 13 43  1  0  0  0  0
 13 44  1  0  0  0  0
 14 18  1  0  0  0  0
 14 45  1  0  0  0  0
 14 46  1  0  0  0  0
 15 20  1  0  0  0  0
 15 47  1  0  0  0  0
 15 48  1  0  0  0  0
 16 17  2  0  0  0  0
 17 19  1  0  0  0  0
 17 21  1  0  0  0  0
 18 24  1  0  0  0  0
 18 49  1  0  0  0  0
 18 50  1  0  0  0  0
 19 22  1  6  0  0  0
 19 23  1  0  0  0  0
 19 51  1  0  0  0  0
 20 25  1  0  0  0  0
 20 52  1  0  0  0  0
 20 53  1  0  0  0  0
 22 26  1  0  0  0  0
 22 54  1  0  0  0  0
 22 55  1  0  0  0  0
 23 27  2  0  0  0  0
 23 28  1  0  0  0  0
 24 29  2  0  0  0  0
 24 30  1  0  0  0  0
 25 56  1  0  0  0  0
 25 57  1  0  0  0  0
 25 58  1  0  0  0  0
 26 60  1  0  0  0  0
 26 61  1  0  0  0  0
 26 62  1  0  0  0  0
 27 31  1  0  0  0  0
 27 63  1  0  0  0  0
 28 32  2  0  0  0  0
 28 64  1  0  0  0  0
 29 34  1  0  0  0  0
 29 65  1  0  0  0  0
 30 35  2  0  0  0  0
 30 66  1  0  0  0  0
 31 33  2  0  0  0  0
 32 33  1  0  0  0  0
 32 67  1  0  0  0  0
 33 68  1  0  0  0  0
 34 36  2  0  0  0  0
 34 69  1  0  0  0  0
 35 36  1  0  0  0  0
 35 70  1  0  0  0  0
 36 71  1  0  0  0  0
 37 38  1  0  0  0  0
 38 39  2  0  0  0  0
 38 73  1  0  0  0  0
 39 40  1  0  0  0  0
 39 74  1  0  0  0  0
 40 41  2  0  0  0  0
 40 42  1  0  0  0  0
 41 75  1  0  0  0  0
M  END
> <PUBCHEM_COMPOUND_CID>
54682461

> <PUBCHEM_COMPOUND_CANONICALIZED>
1

> <PUBCHEM_CACTVS_COMPLEXITY>
1050

> <PUBCHEM_CACTVS_HBOND_ACCEPTOR>
10

> <PUBCHEM_CACTVS_HBOND_DONOR>
2

> <PUBCHEM_CACTVS_ROTATABLE_BOND>
11

> <PUBCHEM_CACTVS_SUBSKEYS>
AAADcfB7OYBAAAAAAAAAAAAAAAAAAAAAAAA8YIEAAAAAAAAB0AAAHwQQSAAADUzB2hQ+yZJIFgKoAjT3THDK0DAxIiAI2Dk4ZNgIJPLAsZGGcAhl0ADI6QeYyOCOgAAAQAAAAAAAAACAAAAAAAAAAAAAAA==

> <PUBCHEM_IUPAC_OPENEYE_NAME>
N-[3-[(1R)-1-[(2R)-4-hydroxy-6-oxo-2-(2-phenylethyl)-2-propyl-3H-pyran-5-yl]propyl]phenyl]-5-(trifluoromethyl)pyridine-2-sulfonamide

> <PUBCHEM_IUPAC_CAS_NAME>
N-[3-[(1R)-1-[(2R)-4-hydroxy-6-oxo-2-(2-phenylethyl)-2-propyl-3H-pyran-5-yl]propyl]phenyl]-5-(trifluoromethyl)-2-pyridinesulfonamide

> <PUBCHEM_IUPAC_NAME_MARKUP>
<I>N</I>-[3-[(1<I>R</I>)-1-[(2<I>R</I>)-4-hydroxy-6-oxo-2-(2-phenylethyl)-2-propyl-3<I>H</I>-pyran-5-yl]propyl]phenyl]-5-(trifluoromethyl)pyridine-2-sulfonamide

> <PUBCHEM_IUPAC_NAME>
N-[3-[(1R)-1-[(2R)-4-hydroxy-6-oxo-2-(2-phenylethyl)-2-propyl-3H-pyran-5-yl]propyl]phenyl]-5-(trifluoromethyl)pyridine-2-sulfonamide

> <PUBCHEM_IUPAC_SYSTEMATIC_NAME>
N-[3-[(1R)-1-[(2R)-4-oxidanyl-6-oxidanylidene-2-(2-phenylethyl)-2-propyl-3H-pyran-5-yl]propyl]phenyl]-5-(trifluoromethyl)pyridine-2-sulfonamide

> <PUBCHEM_IUPAC_TRADITIONAL_NAME>
N-[3-[(1R)-1-[(2R)-4-hydroxy-6-keto-2-phenethyl-2-propyl-3H-pyran-5-yl]propyl]phenyl]-5-(trifluoromethyl)pyridine-2-sulfonamide

> <PUBCHEM_IUPAC_INCHI>
InChI=1S/C31H33F3N2O5S/c1-3-16-30(17-15-21-9-6-5-7-10-21)19-26(37)28(29(38)41-30)25(4-2)22-11-8-12-24(18-22)36-42(39,40)27-14-13-23(20-35-27)31(32,33)34/h5-14,18,20,25,36-37H,3-4,15-17,19H2,1-2H3/t25-,30-/m1/s1

> <PUBCHEM_IUPAC_INCHIKEY>
SUJUHGSWHZTSEU-FYBSXPHGSA-N

> <PUBCHEM_XLOGP3_AA>
7

> <PUBCHEM_EXACT_MASS>
602.20622782

> <PUBCHEM_MOLECULAR_FORMULA>
C31H33F3N2O5S

> <PUBCHEM_MOLECULAR_WEIGHT>
602.7

> <PUBCHEM_OPENEYE_CAN_SMILES>
CCCC1(CC(=C(C(=O)O1)C(CC)C2=CC(=CC=C2)NS(=O)(=O)C3=NC=C(C=C3)C(F)(F)F)O)CCC4=CC=CC=C4

> <PUBCHEM_OPENEYE_ISO_SMILES>
CCC[C@]1(CC(=C(C(=O)O1)[C@H](CC)C2=CC(=CC=C2)NS(=O)(=O)C3=NC=C(C=C3)C(F)(F)F)O)CCC4=CC=CC=C4

> <PUBCHEM_CACTVS_TPSA>
114

> <PUBCHEM_MONOISOTOPIC_WEIGHT>
602.20622782

> <PUBCHEM_TOTAL_CHARGE>
0

> <PUBCHEM_HEAVY_ATOM_COUNT>
42

> <PUBCHEM_ATOM_DEF_STEREO_COUNT>
2

> <PUBCHEM_ATOM_UDEF_STEREO_COUNT>
0

> <PUBCHEM_BOND_DEF_STEREO_COUNT>
0

> <PUBCHEM_BOND_UDEF_STEREO_COUNT>
0

> <PUBCHEM_ISOTOPIC_ATOM_COUNT>
0

> <PUBCHEM_COMPONENT_COUNT>
1

> <PUBCHEM_CACTVS_TAUTO_COUNT>
-1

> <PUBCHEM_COORDINATE_TYPE>
1
5
255

> <PUBCHEM_BONDANNOTATIONS>
11  37  8
11  41  8
12  15  5
19  22  6
23  27  8
23  28  8
24  29  8
24  30  8
27  31  8
28  32  8
29  34  8
30  35  8
31  33  8
32  33  8
34  36  8
35  36  8
37  38  8
38  39  8
39  40  8
40  41  8

$$$$
