61739
  -OEChem-03252401462D

  2  1  0     0  0  0  0  0  0999 V2000
    3.0000    0.0000    0.0000 Cl  0  0  0  0  0  0  0  0  0  0  0  0
    2.0000    0.0000    0.0000 O   0  5  0  0  0  0  0  0  0  0  0  0
  1  2  1  0  0  0  0
M  CHG  1   2  -1
M  END
> <PUBCHEM_COMPOUND_CID>
61739

> <PUBCHEM_COMPOUND_CANONICALIZED>
1

> <PUBCHEM_CACTVS_COMPLEXITY>
2

> <PUBCHEM_CACTVS_HBOND_ACCEPTOR>
1

> <PUBCHEM_CACTVS_HBOND_DONOR>
0

> <PUBCHEM_CACTVS_ROTATABLE_BOND>
0

> <PUBCHEM_CACTVS_SUBSKEYS>
AAADcQAAIAAEAAAAAAAAAAAAAAAAAAAAAAAAAAAAAAAAAAAAAAAAAAAAAAAAAAAAAAAAAAAAAAAAAAAAAAAAAAAAAAAAAAAAAAAAAAAAAAAAAAAAAAAAAAAAAAAAAAAAAAAAAAAAAAAAAAAAAAAAAAAAAA==

> <PUBCHEM_IUPAC_OPENEYE_NAME>
hypochlorite

> <PUBCHEM_IUPAC_CAS_NAME>
hypochlorite

> <PUBCHEM_IUPAC_NAME_MARKUP>
hypochlorite

> <PUBCHEM_IUPAC_NAME>
hypochlorite

> <PUBCHEM_IUPAC_SYSTEMATIC_NAME>
hypochlorite

> <PUBCHEM_IUPAC_TRADITIONAL_NAME>
hypochlorite

> <PUBCHEM_IUPAC_INCHI>
InChI=1S/ClO/c1-2/q-1

> <PUBCHEM_IUPAC_INCHIKEY>
WQYVRQLZKVEZGA-UHFFFAOYSA-N

> <PUBCHEM_XLOGP3_AA>
0.2

> <PUBCHEM_EXACT_MASS>
50.9637673

> <PUBCHEM_MOLECULAR_FORMULA>
ClO-

> <PUBCHEM_MOLECULAR_WEIGHT>
51.45

> <PUBCHEM_OPENEYE_CAN_SMILES>
[O-]Cl

> <PUBCHEM_OPENEYE_ISO_SMILES>
[O-]Cl

> <PUBCHEM_CACTVS_TPSA>
23.1

> <PUBCHEM_MONOISOTOPIC_WEIGHT>
50.9637673

> <PUBCHEM_TOTAL_CHARGE>
-1

> <PUBCHEM_HEAVY_ATOM_COUNT>
2

> <PUBCHEM_ATOM_DEF_STEREO_COUNT>
0

> <PUBCHEM_ATOM_UDEF_STEREO_COUNT>
0

> <PUBCHEM_BOND_DEF_STEREO_COUNT>
0

> <PUBCHEM_BOND_UDEF_STEREO_COUNT>
0

> <PUBCHEM_ISOTOPIC_ATOM_COUNT>
0

> <PUBCHEM_COMPONENT_COUNT>
1

> <PUBCHEM_CACTVS_TAUTO_COUNT>
-1

> <PUBCHEM_COORDINATE_TYPE>
1
5
255

$$$$
